I-Logix-RPY-Archive version 4.0.4 *

- m_fileModifyTime = { IRPYRawContainer 
	- size = 124;
	- value = "AnimationComComponent\\DefaultConfig\\AeroCoeff.cpp" 1.16.2003::10:4:50
	"AnimationComComponent\\DefaultConfig\\AeroCoeff.h" 1.16.2003::10:4:48
	"AnimationComComponent\\DefaultConfig\\AeroDynamics.cpp" 1.16.2003::10:4:50
	"AnimationComComponent\\DefaultConfig\\AeroDynamics.h" 1.16.2003::10:4:48
	"AnimationComComponent\\DefaultConfig\\AirFrame.cpp" 1.16.2003::10:4:50
	"AnimationComComponent\\DefaultConfig\\AirFrame.h" 1.16.2003::10:4:48
	"AnimationComComponent\\DefaultConfig\\AirframePkg.cpp" 1.16.2003::10:4:56
	"AnimationComComponent\\DefaultConfig\\AirframePkg.h" 1.16.2003::10:4:54
	"AnimationComComponent\\DefaultConfig\\AirframeSubsystem.cpp" 1.16.2003::10:4:50
	"AnimationComComponent\\DefaultConfig\\AirframeSubsystem.h" 1.16.2003::10:4:48
	"AnimationComComponent\\DefaultConfig\\Animation.cpp" 1.16.2003::11:15:42
	"AnimationComComponent\\DefaultConfig\\Animation.h" 1.16.2003::11:15:42
	"AnimationComComponent\\DefaultConfig\\App1_app.cpp" 1.16.2003::10:4:52
	"AnimationComComponent\\DefaultConfig\\App1_app.h" 1.16.2003::10:4:48
	"AnimationComComponent\\DefaultConfig\\App1_task_0001ms.cpp" 1.16.2003::16:43:44
	"AnimationComComponent\\DefaultConfig\\App1_task_0001ms.h" 1.16.2003::10:4:48
	"AnimationComComponent\\DefaultConfig\\App1_task_0010ms.cpp" 1.16.2003::10:4:52
	"AnimationComComponent\\DefaultConfig\\App1_task_0010ms.h" 1.16.2003::10:4:48
	"AnimationComComponent\\DefaultConfig\\App1_task_0040ms.cpp" 1.16.2003::10:4:52
	"AnimationComComponent\\DefaultConfig\\App1_task_0040ms.h" 1.16.2003::10:4:48
	"AnimationComComponent\\DefaultConfig\\Application.cpp" 1.16.2003::10:4:56
	"AnimationComComponent\\DefaultConfig\\Application.h" 1.16.2003::10:4:54
	"AnimationComComponent\\DefaultConfig\\AtmoCoeff.cpp" 1.16.2003::10:4:52
	"AnimationComComponent\\DefaultConfig\\AtmoCoeff.h" 1.16.2003::10:4:48
	"AnimationComComponent\\DefaultConfig\\Atmosphere.cpp" 1.16.2003::10:4:52
	"AnimationComComponent\\DefaultConfig\\Atmosphere.h" 1.16.2003::10:4:48
	"AnimationComComponent\\DefaultConfig\\AutoPilot.cpp" 1.16.2003::16:41:50
	"AnimationComComponent\\DefaultConfig\\AutoPilot.h" 1.16.2003::10:4:48
	"AnimationComComponent\\DefaultConfig\\AutoPilotCoeff.cpp" 1.16.2003::16:43:44
	"AnimationComComponent\\DefaultConfig\\AutoPilotCoeff.h" 1.16.2003::10:4:48
	"AnimationComComponent\\DefaultConfig\\AutopilotPkg.cpp" 1.16.2003::10:4:56
	"AnimationComComponent\\DefaultConfig\\AutopilotPkg.h" 1.16.2003::15:56:48
	"AnimationComComponent\\DefaultConfig\\AvionicsPkg.cpp" 1.16.2003::10:4:56
	"AnimationComComponent\\DefaultConfig\\AvionicsPkg.h" 1.16.2003::10:4:54
	"AnimationComComponent\\DefaultConfig\\BodyDynamics.cpp" 1.16.2003::10:4:52
	"AnimationComComponent\\DefaultConfig\\BodyDynamics.h" 1.16.2003::10:4:48
	"AnimationComComponent\\DefaultConfig\\BodyDynamicsCoeff.cpp" 1.16.2003::10:4:52
	"AnimationComComponent\\DefaultConfig\\BodyDynamicsCoeff.h" 1.16.2003::10:4:48
	"AnimationComComponent\\DefaultConfig\\CChartDlg.cpp" 1.16.2003::11:48:46
	"AnimationComComponent\\DefaultConfig\\CChartDlg.h" 1.16.2003::10:4:48
	"AnimationComComponent\\DefaultConfig\\Chart.cpp" 1.16.2003::10:4:52
	"AnimationComComponent\\DefaultConfig\\Chart.h" 1.16.2003::10:4:48
	"AnimationComComponent\\DefaultConfig\\ControlDesigner.cpp" 1.16.2003::10:4:52
	"AnimationComComponent\\DefaultConfig\\ControlDesigner.h" 1.16.2003::10:4:48
	"AnimationComComponent\\DefaultConfig\\DisplayPkg.cpp" 1.16.2003::10:4:56
	"AnimationComComponent\\DefaultConfig\\DisplayPkg.h" 1.16.2003::10:4:54
	"AnimationComComponent\\DefaultConfig\\EstimatorLOS.cpp" 1.16.2003::10:4:52
	"AnimationComComponent\\DefaultConfig\\EstimatorLOS.h" 1.16.2003::10:4:48
	"AnimationComComponent\\DefaultConfig\\EstimatorLOSCoeff.cpp" 1.16.2003::10:4:52
	"AnimationComComponent\\DefaultConfig\\EstimatorLOSCoeff.h" 1.16.2003::10:4:48
	"AnimationComComponent\\DefaultConfig\\FinActuator.cpp" 1.16.2003::10:4:52
	"AnimationComComponent\\DefaultConfig\\FinActuator.h" 1.16.2003::10:4:48
	"AnimationComComponent\\DefaultConfig\\FinActuatorCoeff.cpp" 1.16.2003::10:4:52
	"AnimationComComponent\\DefaultConfig\\FinActuatorCoeff.h" 1.16.2003::10:4:50
	"AnimationComComponent\\DefaultConfig\\GimbalController.cpp" 1.16.2003::10:4:52
	"AnimationComComponent\\DefaultConfig\\GimbalController.h" 1.16.2003::10:4:50
	"AnimationComComponent\\DefaultConfig\\GimbalControllerCoeff.cpp" 1.16.2003::10:4:52
	"AnimationComComponent\\DefaultConfig\\GimbalControllerCoeff.h" 1.16.2003::10:4:50
	"AnimationComComponent\\DefaultConfig\\GuidanceLogic.cpp" 1.16.2003::17:58:18
	"AnimationComComponent\\DefaultConfig\\GuidanceLogic.h" 1.16.2003::10:4:50
	"AnimationComComponent\\DefaultConfig\\GuidancePkg.cpp" 1.16.2003::10:4:56
	"AnimationComComponent\\DefaultConfig\\GuidancePkg.h" 1.16.2003::10:4:54
	"AnimationComComponent\\DefaultConfig\\LibraryPkg.cpp" 1.16.2003::10:4:56
	"AnimationComComponent\\DefaultConfig\\LibraryPkg.h" 1.16.2003::10:4:54
	"AnimationComComponent\\DefaultConfig\\On1DConn.cpp" 1.16.2003::10:4:54
	"AnimationComComponent\\DefaultConfig\\On1DConn.h" 1.16.2003::10:4:50
	"AnimationComComponent\\DefaultConfig\\On3DConn.cpp" 1.16.2003::10:4:54
	"AnimationComComponent\\DefaultConfig\\On3DConn.h" 1.16.2003::10:4:50
	"AnimationComComponent\\DefaultConfig\\OniBase.cpp" 1.16.2003::10:4:56
	"AnimationComComponent\\DefaultConfig\\OniBase.h" 1.16.2003::10:4:54
	"AnimationComComponent\\DefaultConfig\\RateStabilizationFilter.cpp" 1.16.2003::10:4:54
	"AnimationComComponent\\DefaultConfig\\RateStabilizationFilter.h" 1.16.2003::10:4:50
	"AnimationComComponent\\DefaultConfig\\RateStabilizationFilterCoeff.cpp" 1.16.2003::10:4:54
	"AnimationComComponent\\DefaultConfig\\RateStabilizationFilterCoeff.h" 1.16.2003::10:4:50
	"AnimationComComponent\\DefaultConfig\\ScheduledController_1D.cpp" 1.16.2003::10:4:54
	"AnimationComComponent\\DefaultConfig\\ScheduledController_1D.h" 1.16.2003::10:4:50
	"AnimationComComponent\\DefaultConfig\\ScheduledController_1D_Coeff.cpp" 1.16.2003::10:4:54
	"AnimationComComponent\\DefaultConfig\\ScheduledController_1D_Coeff.h" 1.16.2003::10:4:50
	"AnimationComComponent\\DefaultConfig\\SeekerSubsystem.cpp" 1.16.2003::10:4:54
	"AnimationComComponent\\DefaultConfig\\SeekerSubsystem.h" 1.16.2003::10:4:50
	"AnimationComComponent\\DefaultConfig\\SeekerSubsystemCoeff.cpp" 1.16.2003::10:4:54
	"AnimationComComponent\\DefaultConfig\\SeekerSubsystemCoeff.h" 1.16.2003::10:4:50
	"AnimationComComponent\\DefaultConfig\\SeekerSubsystemPkg.cpp" 1.16.2003::10:4:56
	"AnimationComComponent\\DefaultConfig\\SeekerSubsystemPkg.h" 1.16.2003::10:4:56
	"AnimationComComponent\\DefaultConfig\\Target.cpp" 1.16.2003::10:4:54
	"AnimationComComponent\\DefaultConfig\\Target.h" 1.16.2003::10:4:50
	"AnimationComComponent\\DefaultConfig\\TargetPkg.cpp" 1.16.2003::10:4:56
	"AnimationComComponent\\DefaultConfig\\TargetPkg.h" 1.16.2003::10:4:56
	"AnimationComComponent\\DefaultConfig\\WindGust.cpp" 1.16.2003::10:4:54
	"AnimationComComponent\\DefaultConfig\\WindGust.h" 1.16.2003::10:4:50
	"AnimationComComponent\\DefaultConfig\\crossProduct.cpp" 1.16.2003::10:4:52
	"AnimationComComponent\\DefaultConfig\\crossProduct.h" 1.16.2003::10:4:48
	"AnimationComComponent\\DefaultConfig\\dotProduct.cpp" 1.16.2003::10:4:52
	"AnimationComComponent\\DefaultConfig\\dotProduct.h" 1.16.2003::10:4:48
	"AnimationComComponent\\DefaultConfig\\stdafx.h" 1.16.2003::10:4:34
	"AnimationComComponent\\DefaultConfig\\theApp.cpp" 1.16.2003::10:4:54
	"AnimationComComponent\\DefaultConfig\\theApp.h" 1.16.2003::10:4:50
	"AnimationComComponent\\DefaultConfig\\transformAngleRate.cpp" 1.16.2003::10:4:54
	"AnimationComComponent\\DefaultConfig\\transformAngleRate.h" 1.16.2003::10:4:50
	"AnimationComComponent\\DefaultConfig\\transformAngle_DMC2Euler.cpp" 1.16.2003::10:4:54
	"AnimationComComponent\\DefaultConfig\\transformAngle_DMC2Euler.h" 1.16.2003::10:4:50
	"AnimationComComponent\\DefaultConfig\\transformAngle_DMC2Euler_copy.cpp" 1.14.2003::18:5:46
	"AnimationComComponent\\DefaultConfig\\transformAngle_DMC2Euler_copy.h" 1.14.2003::18:0:18
	"AnimationComComponent\\DefaultConfig\\transformAngle_Euler2Quaternion.cpp" 1.16.2003::10:4:54
	"AnimationComComponent\\DefaultConfig\\transformAngle_Euler2Quaternion.h" 1.16.2003::10:4:50
	"AnimationComComponent\\DefaultConfig\\transformPosition_B2I.cpp" 1.16.2003::10:4:54
	"AnimationComComponent\\DefaultConfig\\transformPosition_B2I.h" 1.16.2003::10:4:50
	"AnimationComComponent\\DefaultConfig\\transformPosition_I2B.cpp" 1.16.2003::10:4:54
	"AnimationComComponent\\DefaultConfig\\transformPosition_I2B.h" 1.16.2003::10:4:50
	"e:\\distcomponents\\avionicslib\\missileapp20030110\\missileappwithchart\\animationcomcomponent\\defaultconfig\\animation.cpp" 1.13.2003::19:23:57
	"e:\\distcomponents\\avionicslib\\missileapp20030110\\missileappwithchart\\animationcomcomponent\\defaultconfig\\app1_app.cpp" 1.13.2003::17:40:19
	"e:\\distcomponents\\avionicslib\\missileapp20030110\\missileappwithchart\\animationcomcomponent\\defaultconfig\\app1_task_0001ms.cpp" 1.13.2003::18:8:49
	"e:\\distcomponents\\avionicslib\\missileapp20030110\\missileappwithchart\\animationcomcomponent\\defaultconfig\\app1_task_0010ms.cpp" 1.15.2003::16:31:49
	"e:\\distcomponents\\avionicslib\\missileapp20030110\\missileappwithchart\\animationcomcomponent\\defaultconfig\\cchartdlg.cpp" 1.15.2003::17:20:20
	"e:\\distcomponents\\avionicslib\\missileapp20030110\\missileappwithchart\\animationcomcomponent\\defaultconfig\\chart.cpp" 1.15.2003::18:0:10
	"e:\\distcomponents\\avionicslib\\missileapp20030110\\missileappwithchart\\animationcomcomponent\\defaultconfig\\dotproduct.cpp" 1.15.2003::9:1:38
	"e:\\distcomponents\\avionicslib\\missileapp20030110\\missileappwithchart\\animationcomcomponent\\defaultconfig\\scheduledcontroller_1d.cpp" 1.15.2003::9:35:42
	"e:\\distcomponents\\avionicslib\\missileapp20030110\\missileappwithchart\\animationcomcomponent\\defaultconfig\\scheduledcontroller_1d_coeff.cpp" 1.15.2003::11:33:46
	"e:\\distcomponents\\avionicslib\\missileapp20030110\\missileappwithchart\\animationcomcomponent\\defaultconfig\\transformangle_dmc2euler.cpp" 1.15.2003::11:38:31
	"e:\\distcomponents\\avionicslib\\missileapp20030110\\missileappwithchart\\animationcomcomponent\\defaultconfig\\transformposition_b2i.cpp" 1.15.2003::11:45:34
	"e:\\distcomponents\\avionicslib\\missileapp20030110\\missileappwithchart\\animationcomcomponent\\defaultconfig\\windgust.cpp" 1.15.2003::11:53:12
	"e:\\distcomponents\\avionicslib\\missileappmt\\animationcomcomponent\\defaultconfig\\autopilot.cpp" 1.16.2003::16:41:50
	"e:\\distcomponents\\avionicslib\\missileappmt\\animationcomcomponent\\defaultconfig\\cchartdlg.cpp" 1.16.2003::11:48:46
	"e:\\distcomponents\\avionicslib\\missileappmt\\animationcomcomponent\\defaultconfig\\guidancelogic.cpp" 1.16.2003::16:59:14
	
}
- size = 54;
- hElement = { IHandle 
	- _m2Class = "IClass";
	- _filename = "Application.sbs";
	- _subsystem = "Application";
	- _class = "";
	- _name = "AirframeSubsystem";
	- _id = GUID 49915672-69ae-4e6e-8908-96889cb5932a;
}
- genTime = 1.16.2003::10:4:56;
- hElement = { IHandle 
	- _m2Class = "IClass";
	- _filename = "SeekerSubsystemPkg.sbs";
	- _subsystem = "SeekerSubsystemPkg";
	- _class = "";
	- _name = "RateStabilizationFilterCoeff";
	- _id = GUID fe19aff9-3dd9-44f7-ae47-26e3acf7b442;
}
- genTime = 1.16.2003::10:4:56;
- hElement = { IHandle 
	- _m2Class = "IClass";
	- _filename = "AirframePkg.sbs";
	- _subsystem = "AirframePkg";
	- _class = "";
	- _name = "On3DConn";
	- _id = GUID 57f73a8e-4edc-44d6-abb8-b8f4c9e7367a;
}
- genTime = 1.16.2003::10:4:56;
- hElement = { IHandle 
	- _m2Class = "IClass";
	- _filename = "SeekerSubsystemPkg.sbs";
	- _subsystem = "SeekerSubsystemPkg";
	- _class = "";
	- _name = "SeekerSubsystemCoeff";
	- _id = GUID a2de3737-457f-4226-8790-ab8681e06c1d;
}
- genTime = 1.16.2003::10:4:56;
- hElement = { IHandle 
	- _m2Class = "IClass";
	- _filename = "AirframePkg.sbs";
	- _subsystem = "AirframePkg";
	- _class = "";
	- _name = "BodyDynamics";
	- _id = GUID f19a6fbd-82a5-4b21-b74e-9664cad3b783;
}
- genTime = 1.16.2003::10:4:56;
- hElement = { IHandle 
	- _m2Class = "IClass";
	- _filename = "AutopilotPkg.sbs";
	- _subsystem = "AutopilotPkg";
	- _class = "";
	- _name = "AutoPilot";
	- _id = GUID 5e16ef38-bc28-415f-967d-7462e4c948aa;
}
- genTime = 1.16.2003::16:41:52;
- hElement = { IHandle 
	- _m2Class = "ISubsystem";
	- _filename = "AutopilotPkg.sbs";
	- _subsystem = "";
	- _class = "";
	- _name = "AutopilotPkg";
	- _id = GUID c9142634-dee8-4f23-9ab2-94629976d079;
}
- genTime = 1.16.2003::16:43:44;
- hElement = { IHandle 
	- _m2Class = "IClass";
	- _filename = "DisplayPkg.sbs";
	- _subsystem = "DisplayPkg";
	- _class = "";
	- _name = "CChartDlg";
	- _id = GUID e34abbac-4bae-431d-a695-a93e4aee4dbb;
}
- genTime = 1.16.2003::11:48:48;
- hElement = { IHandle 
	- _m2Class = "IClass";
	- _filename = "SeekerSubsystemPkg.sbs";
	- _subsystem = "SeekerSubsystemPkg";
	- _class = "";
	- _name = "RateStabilizationFilter";
	- _id = GUID 38231802-083e-4677-ae3d-ce8115146c1d;
}
- genTime = 1.16.2003::10:4:56;
- hElement = { IHandle 
	- _m2Class = "ISubsystem";
	- _filename = "OniBase.sbs";
	- _subsystem = "";
	- _class = "";
	- _name = "OniBase";
	- _id = GUID d6bd9b2e-3fe7-4955-9b67-f370dc3ce26f;
}
- genTime = 1.16.2003::10:4:56;
- hElement = { IHandle 
	- _m2Class = "IClass";
	- _filename = "DisplayPkg.sbs";
	- _subsystem = "DisplayPkg";
	- _class = "";
	- _name = "Chart";
	- _id = GUID 665f6928-751f-4b05-87f5-545aa598c872;
}
- genTime = 1.16.2003::10:4:56;
- hElement = { IHandle 
	- _m2Class = "IClass";
	- _filename = "AvionicsPkg.sbs";
	- _subsystem = "LibraryPkg::AvionicsPkg";
	- _class = "";
	- _name = "transformAngle_DMC2Euler";
	- _id = GUID b0b723e3-27fb-11d7-b33e-00c04f680d9d;
}
- genTime = 1.16.2003::10:4:56;
- hElement = { IHandle 
	- _m2Class = "ISubsystem";
	- _filename = "TargetPkg.sbs";
	- _subsystem = "";
	- _class = "";
	- _name = "TargetPkg";
	- _id = GUID 9d763caf-f44a-4d2e-82ea-44a15b60ea2a;
}
- genTime = 1.16.2003::10:4:56;
- hElement = { IHandle 
	- _m2Class = "IClass";
	- _filename = "SeekerSubsystemPkg.sbs";
	- _subsystem = "SeekerSubsystemPkg";
	- _class = "";
	- _name = "GimbalController";
	- _id = GUID cf38eb30-d9fa-4ca6-ad7d-56d02c0bf8dc;
}
- genTime = 1.16.2003::10:4:56;
- hElement = { IHandle 
	- _m2Class = "IClass";
	- _filename = "Application.sbs";
	- _subsystem = "Application";
	- _class = "";
	- _name = "App1_task_0040ms";
	- _id = GUID 9430886a-43e2-4171-a2fb-373ab2f3cb1c;
}
- genTime = 1.16.2003::10:4:56;
- hElement = { IHandle 
	- _m2Class = "IClass";
	- _filename = "AirframePkg.sbs";
	- _subsystem = "AirframePkg";
	- _class = "";
	- _name = "AeroDynamics";
	- _id = GUID 22dfd167-3d2b-43c0-96ac-aee80d530cfb;
}
- genTime = 1.16.2003::10:4:56;
- hElement = { IHandle 
	- _m2Class = "ISubsystem";
	- _filename = "LibraryPkg.sbs";
	- _subsystem = "";
	- _class = "";
	- _name = "LibraryPkg";
	- _id = GUID f7ea1d29-db32-4756-bf15-fef5352c82ba;
}
- genTime = 1.16.2003::10:4:56;
- hElement = { IHandle 
	- _m2Class = "ISubsystem";
	- _filename = "Application.sbs";
	- _subsystem = "";
	- _class = "";
	- _name = "Application";
	- _id = GUID b8c65d75-16b0-11d7-b32e-00c04f680d9d;
}
- genTime = 1.16.2003::16:43:44;
- hElement = { IHandle 
	- _m2Class = "IClass";
	- _filename = "AirframePkg.sbs";
	- _subsystem = "AirframePkg";
	- _class = "";
	- _name = "AtmoCoeff";
	- _id = GUID 3a27ac68-2f73-47a4-866a-bb425caa301f;
}
- genTime = 1.16.2003::10:4:56;
- hElement = { IHandle 
	- _m2Class = "IClass";
	- _filename = "AvionicsPkg.sbs";
	- _subsystem = "LibraryPkg::AvionicsPkg";
	- _class = "";
	- _name = "transformAngleRate";
	- _id = GUID b0b72994-27fb-11d7-b33e-00c04f680d9d;
}
- genTime = 1.16.2003::10:4:56;
- hElement = { IHandle 
	- _m2Class = "IClass";
	- _filename = "SeekerSubsystemPkg.sbs";
	- _subsystem = "SeekerSubsystemPkg";
	- _class = "";
	- _name = "EstimatorLOSCoeff";
	- _id = GUID 757de964-d64f-46ad-aa93-daab1bdfc79f;
}
- genTime = 1.16.2003::10:4:56;
- hElement = { IHandle 
	- _m2Class = "IClass";
	- _filename = "AirframePkg.sbs";
	- _subsystem = "AirframePkg";
	- _class = "";
	- _name = "BodyDynamicsCoeff";
	- _id = GUID f802dab1-0a6b-4062-a631-c7d63d2b0a87;
}
- genTime = 1.16.2003::10:4:56;
- hElement = { IHandle 
	- _m2Class = "IClass";
	- _filename = "AvionicsPkg.sbs";
	- _subsystem = "LibraryPkg::AvionicsPkg";
	- _class = "";
	- _name = "ControlDesigner";
	- _id = GUID 59d10e1a-887d-44de-8544-65e12015712a;
}
- genTime = 1.16.2003::10:4:56;
- hElement = { IHandle 
	- _m2Class = "IClass";
	- _filename = "AirframePkg.sbs";
	- _subsystem = "AirframePkg";
	- _class = "";
	- _name = "FinActuatorCoeff";
	- _id = GUID f93c77fe-0083-479b-8a05-aa63abb87a5a;
}
- genTime = 1.16.2003::10:4:56;
- hElement = { IHandle 
	- _m2Class = "IClass";
	- _filename = "AvionicsPkg.sbs";
	- _subsystem = "LibraryPkg::AvionicsPkg";
	- _class = "";
	- _name = "transformAngle_Euler2Quaternion";
	- _id = GUID b0b71d1f-27fb-11d7-b33e-00c04f680d9d;
}
- genTime = 1.16.2003::10:4:56;
- hElement = { IHandle 
	- _m2Class = "IClass";
	- _filename = "AvionicsPkg.sbs";
	- _subsystem = "LibraryPkg::AvionicsPkg";
	- _class = "";
	- _name = "ScheduledController_1D";
	- _id = GUID ae624a8e-dcdc-4477-9a71-ed8ab68fdc4d;
}
- genTime = 1.16.2003::10:4:56;
- hElement = { IHandle 
	- _m2Class = "IClass";
	- _filename = "AvionicsPkg.sbs";
	- _subsystem = "LibraryPkg::AvionicsPkg";
	- _class = "";
	- _name = "dotProduct";
	- _id = GUID b0b72f9b-27fb-11d7-b33e-00c04f680d9d;
}
- genTime = 1.16.2003::10:4:56;
- hElement = { IHandle 
	- _m2Class = "ISubsystem";
	- _filename = "DisplayPkg.sbs";
	- _subsystem = "";
	- _class = "";
	- _name = "DisplayPkg";
	- _id = GUID 1f4df77a-ce15-4b4b-9f30-a2b94de5daf8;
}
- genTime = 1.16.2003::11:44:47;
- hElement = { IHandle 
	- _m2Class = "IClass";
	- _filename = "SeekerSubsystemPkg.sbs";
	- _subsystem = "SeekerSubsystemPkg";
	- _class = "";
	- _name = "EstimatorLOS";
	- _id = GUID 524b5b69-feec-4f96-b6af-3a3c85938e16;
}
- genTime = 1.16.2003::10:4:56;
- hElement = { IHandle 
	- _m2Class = "IClass";
	- _filename = "AirframePkg.sbs";
	- _subsystem = "AirframePkg";
	- _class = "";
	- _name = "FinActuator";
	- _id = GUID 07a2767e-6557-4476-8be3-4b2e1b59c601;
}
- genTime = 1.16.2003::10:4:56;
- hElement = { IHandle 
	- _m2Class = "IClass";
	- _filename = "TargetPkg.sbs";
	- _subsystem = "TargetPkg";
	- _class = "";
	- _name = "Target";
	- _id = GUID 7d73ed67-6670-4690-97c9-6fe046428225;
}
- genTime = 1.16.2003::10:4:56;
- hElement = { IHandle 
	- _m2Class = "IClass";
	- _filename = "Application.sbs";
	- _subsystem = "Application";
	- _class = "";
	- _name = "theApp";
	- _id = GUID b8c65cbe-16b0-11d7-b32e-00c04f680d9d;
}
- genTime = 1.16.2003::16:43:44;
- hElement = { IHandle 
	- _m2Class = "ISubsystem";
	- _filename = "SeekerSubsystemPkg.sbs";
	- _subsystem = "";
	- _class = "";
	- _name = "SeekerSubsystemPkg";
	- _id = GUID 48655bb2-120d-40c8-b6b2-5fbfff52ea49;
}
- genTime = 1.16.2003::10:4:56;
- hElement = { IHandle 
	- _m2Class = "IClass";
	- _filename = "DisplayPkg.sbs";
	- _subsystem = "DisplayPkg";
	- _class = "";
	- _name = "Animation";
	- _id = GUID de89020a-078c-4cfd-a94c-258007f12582;
}
- genTime = 1.16.2003::11:15:42;
- hElement = { IHandle 
	- _m2Class = "IClass";
	- _filename = "SeekerSubsystemPkg.sbs";
	- _subsystem = "SeekerSubsystemPkg";
	- _class = "";
	- _name = "GimbalControllerCoeff";
	- _id = GUID 7fc53607-31f4-4635-818d-cc35770826f5;
}
- genTime = 1.16.2003::10:4:56;
- hElement = { IHandle 
	- _m2Class = "IClass";
	- _filename = "Application.sbs";
	- _subsystem = "Application";
	- _class = "";
	- _name = "App1_task_0001ms";
	- _id = GUID 07644c30-be7d-42c1-9d3c-a996fad9e984;
}
- genTime = 1.16.2003::16:43:44;
- hElement = { IHandle 
	- _m2Class = "IClass";
	- _filename = "AirframePkg.sbs";
	- _subsystem = "AirframePkg";
	- _class = "";
	- _name = "Atmosphere";
	- _id = GUID 708cbe3b-0b95-4ddd-9d2c-5e8e1507a5aa;
}
- genTime = 1.16.2003::10:4:56;
- hElement = { IHandle 
	- _m2Class = "IClass";
	- _filename = "Application.sbs";
	- _subsystem = "Application";
	- _class = "";
	- _name = "AirFrame";
	- _id = GUID 5960a654-7020-4e25-81fb-192323445712;
}
- genTime = 1.16.2003::10:4:56;
- hElement = { IHandle 
	- _m2Class = "IClass";
	- _filename = "AirframePkg.sbs";
	- _subsystem = "AirframePkg";
	- _class = "";
	- _name = "On1DConn";
	- _id = GUID 804ccced-2aa9-4052-9cd0-aaf162c62158;
}
- genTime = 1.16.2003::10:4:56;
- hElement = { IHandle 
	- _m2Class = "IClass";
	- _filename = "AvionicsPkg.sbs";
	- _subsystem = "LibraryPkg::AvionicsPkg";
	- _class = "";
	- _name = "ScheduledController_1D_Coeff";
	- _id = GUID a147fc70-7cd8-4b32-97da-662d0a5cd754;
}
- genTime = 1.16.2003::10:4:56;
- hElement = { IHandle 
	- _m2Class = "IClass";
	- _filename = "GuidancePkg.sbs";
	- _subsystem = "GuidancePkg";
	- _class = "";
	- _name = "GuidanceLogic";
	- _id = GUID 2132ed82-1e28-49d3-8f86-94032e8e6248;
}
- genTime = 1.16.2003::17:58:17;
- hElement = { IHandle 
	- _m2Class = "ISubsystem";
	- _filename = "GuidancePkg.sbs";
	- _subsystem = "";
	- _class = "";
	- _name = "GuidancePkg";
	- _id = GUID 48747585-d7db-4893-aea1-35e124e95403;
}
- genTime = 1.16.2003::17:58:30;
- hElement = { IHandle 
	- _m2Class = "ISubsystem";
	- _filename = "AvionicsPkg.sbs";
	- _subsystem = "LibraryPkg";
	- _class = "";
	- _name = "AvionicsPkg";
	- _id = GUID baea2038-eea5-4481-bac3-ef69bc8fc62a;
}
- genTime = 1.16.2003::10:4:56;
- hElement = { IHandle 
	- _m2Class = "IClass";
	- _filename = "AvionicsPkg.sbs";
	- _subsystem = "LibraryPkg::AvionicsPkg";
	- _class = "";
	- _name = "transformPosition_B2I";
	- _id = GUID b0b71b53-27fb-11d7-b33e-00c04f680d9d;
}
- genTime = 1.16.2003::10:4:56;
- hElement = { IHandle 
	- _m2Class = "ICodeGenConfigInfo";
	- _filename = "AnimationComComponent.cmp";
	- _subsystem = "";
	- _class = "";
	- _name = "AnimationComComponent\\DefaultConfig";
	- _id = GUID d26546d3-231e-11d7-b334-00c04f680d9d;
}
- genTime = 1.16.2003::17:58:30;
- hElement = { IHandle 
	- _m2Class = "IClass";
	- _filename = "AvionicsPkg.sbs";
	- _subsystem = "LibraryPkg::AvionicsPkg";
	- _class = "";
	- _name = "transformPosition_I2B";
	- _id = GUID 08e3d98b-27f1-11d7-b33c-00c04f680d9d;
}
- genTime = 1.16.2003::10:4:56;
- hElement = { IHandle 
	- _m2Class = "IClass";
	- _filename = "Application.sbs";
	- _subsystem = "Application";
	- _class = "";
	- _name = "App1_app";
	- _id = GUID afd974ed-6744-4204-b10c-b4eb494c502e;
}
- genTime = 1.16.2003::10:4:56;
- hElement = { IHandle 
	- _m2Class = "IClass";
	- _filename = "AutopilotPkg.sbs";
	- _subsystem = "AutopilotPkg";
	- _class = "";
	- _name = "AutoPilotCoeff";
	- _id = GUID 7b40d2f3-81fc-4cb9-a170-00350e345ab1;
}
- genTime = 1.16.2003::16:43:44;
- hElement = { IHandle 
	- _m2Class = "IClass";
	- _filename = "AvionicsPkg.sbs";
	- _subsystem = "LibraryPkg::AvionicsPkg";
	- _class = "";
	- _name = "crossProduct";
	- _id = GUID af0f768a-27c8-11d7-b33b-00c04f680d9d;
}
- genTime = 1.16.2003::10:4:56;
- hElement = { IHandle 
	- _m2Class = "ISubsystem";
	- _filename = "AirframePkg.sbs";
	- _subsystem = "";
	- _class = "";
	- _name = "AirframePkg";
	- _id = GUID e57df4ae-c7c0-4684-a34b-61f6e934aed0;
}
- genTime = 1.16.2003::10:4:56;
- hElement = { IHandle 
	- _m2Class = "IClass";
	- _filename = "AirframePkg.sbs";
	- _subsystem = "AirframePkg";
	- _class = "";
	- _name = "AeroCoeff";
	- _id = GUID e23cc183-013d-4057-920e-e77a8a9b4ab3;
}
- genTime = 1.16.2003::10:4:56;
- hElement = { IHandle 
	- _m2Class = "IClass";
	- _filename = "AvionicsPkg.sbs";
	- _subsystem = "LibraryPkg::AvionicsPkg";
	- _class = "";
	- _name = "WindGust";
	- _id = GUID b0b733f0-27fb-11d7-b33e-00c04f680d9d;
}
- genTime = 1.16.2003::10:4:56;
- hElement = { IHandle 
	- _m2Class = "IClass";
	- _filename = "SeekerSubsystemPkg.sbs";
	- _subsystem = "SeekerSubsystemPkg";
	- _class = "";
	- _name = "SeekerSubsystem";
	- _id = GUID 2695c2fa-92d1-4fe6-9ebb-fa0b8cb97114;
}
- genTime = 1.16.2003::17:58:30;
- hElement = { IHandle 
	- _m2Class = "IClass";
	- _filename = "Application.sbs";
	- _subsystem = "Application";
	- _class = "";
	- _name = "App1_task_0010ms";
	- _id = GUID 3b135a03-dcec-473b-b891-8aba341d4138;
}
- genTime = 1.16.2003::17:58:30;

