I-Logix-RPY-Archive version 4.0.4 C++
{ IDiagram 
	- _id = GUID 34fae592-6a76-466a-bc98-ff2df6618888;
	- _myState = 8192;
	- _name = "MissileGuidanceApplication";
	- _graphicChart = { CGIClassChart 
		- _id = GUID 5777609b-d064-4811-8135-f74f0ee87d6e;
		- m_type = 0;
		- m_pModelObject = { IHandle 
			- _m2Class = "IDiagram";
			- _id = GUID 34fae592-6a76-466a-bc98-ff2df6618888;
		}
		- m_pParent = ;
		- m_name = { CGIText 
			- m_str = "";
			- m_style = "Arial" 10 0 0 0 1 ;
			- m_color = { IColor 
				- m_fgColor = 0;
				- m_bgColor = 0;
				- m_bgFlag = 0;
			}
			- m_position = 1 0 0  ;
			- m_nIdent = 0;
			- m_bImplicitSetRectPoints = 0;
		}
		- m_drawBehavior = 0;
		- elementList = 29;
		{ CGIClassAndInstance 
			- _id = GUID cefcac69-6f3c-46bf-888f-b9c0c95a666a;
			- m_type = 87;
			- m_pModelObject = { IHandle 
				- _m2Class = "IClass";
				- _filename = "AirframePkg.sbs";
				- _subsystem = "AirframePkg";
				- _class = "";
				- _name = "AeroDynamics";
				- _id = GUID 22dfd167-3d2b-43c0-96ac-aee80d530cfb;
			}
			- m_pParent = GUID 1a454c08-b895-4d37-97e7-c72ee09fefad;
			- m_name = { CGIText 
				- m_str = "AirframePkg::AeroDynamics";
				- m_style = "Arial" 10 0 0 0 1 ;
				- m_color = { IColor 
					- m_fgColor = 44;
					- m_bgColor = 44;
					- m_bgFlag = 0;
				}
				- m_position = 1 0 0  ;
				- m_nIdent = 0;
				- m_bImplicitSetRectPoints = 0;
			}
			- m_drawBehavior = 26632;
			- m_color = { IColor 
				- m_fgColor = 44;
				- m_bgColor = 21;
				- m_bgFlag = 0;
			}
			- m_lineWidth = 1;
			- m_polygon = 4 -7.58284461212276 9.45934028833256  -1.19889400694468 9.45934028833256  -1.19889400694468 7.59735469515562  -7.58284461212276 7.59735469515562  ;
			- m_nNameFormat = 0;
			- m_nIsNameFormat = 0;
			- Attrs = { IRPYRawContainer 
				- size = 0;
			}
			- Operations = { IRPYRawContainer 
				- size = 0;
			}
			- m_dSeparatorPosition = 0.5;
			- m_pInstance = NULL;
		}
		{ CGIClassAndInstance 
			- _id = GUID d4501ecb-61d1-410b-8e12-7b0ef3fe06f8;
			- m_type = 87;
			- m_pModelObject = { IHandle 
				- _m2Class = "IClass";
				- _filename = "TrackingSubsystemPkg.sbs";
				- _subsystem = "TrackingSubsystemPkg";
				- _class = "";
				- _name = "TrackingSubsystem";
				- _id = GUID 2695c2fa-92d1-4fe6-9ebb-fa0b8cb97114;
			}
			- m_pParent = GUID 1a454c08-b895-4d37-97e7-c72ee09fefad;
			- m_name = { CGIText 
				- m_str = "TrackingSubsystem";
				- m_style = "Arial" 10 0 0 0 1 ;
				- m_color = { IColor 
					- m_fgColor = 44;
					- m_bgColor = 44;
					- m_bgFlag = 0;
				}
				- m_position = 1 0 0  ;
				- m_nIdent = 0;
				- m_bImplicitSetRectPoints = 0;
			}
			- m_drawBehavior = 28680;
			- m_color = { IColor 
				- m_fgColor = 44;
				- m_bgColor = 21;
				- m_bgFlag = 0;
			}
			- m_lineWidth = 1;
			- m_polygon = 4 -7.58284461212276 22.2272414986887  -1.19889400694468 22.2272414986887  -1.19889400694468 20.3652559055118  -7.58284461212276 20.3652559055118  ;
			- m_nNameFormat = 0;
			- m_nIsNameFormat = 0;
			- Attrs = { IRPYRawContainer 
				- size = 0;
			}
			- Operations = { IRPYRawContainer 
				- size = 0;
			}
			- m_dSeparatorPosition = 0.5;
			- m_pInstance = NULL;
		}
		{ CGIClassAndInstance 
			- _id = GUID de55ca68-7233-42bb-acbd-2fc4b3ac4ed4;
			- m_type = 87;
			- m_pModelObject = { IHandle 
				- _m2Class = "IClass";
				- _filename = "GuidancePkg.sbs";
				- _subsystem = "GuidancePkg";
				- _class = "";
				- _name = "GuidanceLogic";
				- _id = GUID 2132ed82-1e28-49d3-8f86-94032e8e6248;
			}
			- m_pParent = GUID 1a454c08-b895-4d37-97e7-c72ee09fefad;
			- m_name = { CGIText 
				- m_str = "GuidancePkg::GuidanceLogic";
				- m_style = "Arial" 10 0 0 0 1 ;
				- m_color = { IColor 
					- m_fgColor = 44;
					- m_bgColor = 44;
					- m_bgFlag = 0;
				}
				- m_position = 1 0 0  ;
				- m_nIdent = 0;
				- m_bImplicitSetRectPoints = 0;
			}
			- m_drawBehavior = 26632;
			- m_color = { IColor 
				- m_fgColor = 44;
				- m_bgColor = 21;
				- m_bgFlag = 0;
			}
			- m_lineWidth = 1;
			- m_polygon = 4 -7.58284461212276 19.0352661960997  -1.19889400694468 19.0352661960997  -1.19889400694468 17.1732806029227  -7.58284461212276 17.1732806029227  ;
			- m_nNameFormat = 0;
			- m_nIsNameFormat = 0;
			- Attrs = { IRPYRawContainer 
				- size = 0;
			}
			- Operations = { IRPYRawContainer 
				- size = 0;
			}
			- m_dSeparatorPosition = 0.5;
			- m_pInstance = NULL;
		}
		{ CGILink 
			- _id = GUID df9f6255-1258-412c-aca6-8a8c8cd4c8c6;
			- m_type = 93;
			- m_pModelObject = { IHandle 
				- _m2Class = "ILink";
				- _filename = "Application.sbs";
				- _subsystem = "Application";
				- _class = "Airframe";
				- _name = "itsBodyDynamics";
				- _id = GUID ca4a9300-baf1-4b5e-998b-94c724e18ee4;
			}
			- m_pParent = ;
			- m_name = { CGIText 
				- m_str = "";
				- m_style = "Arial" 10 0 0 0 1 ;
				- m_color = { IColor 
					- m_fgColor = 21;
					- m_bgColor = 21;
					- m_bgFlag = 0;
				}
				- m_position = 1 0 0  ;
				- m_nIdent = 0;
				- m_bImplicitSetRectPoints = 0;
			}
			- m_drawBehavior = 4096;
			- m_pSource = GUID 892d6922-bbeb-4937-a587-03af8b48ef78;
			- m_sourceType = 'F';
			- m_pTarget = GUID 7d4531d1-97e0-41ea-b373-a96974b567f5;
			- m_targetType = 'T';
			- m_direction = ' ';
			- m_rpn = { CGIText 
				- m_str = "";
				- m_style = "Arial" 10 0 0 0 1 ;
				- m_color = { IColor 
					- m_fgColor = 2;
					- m_bgColor = 2;
					- m_bgFlag = 0;
				}
				- m_position = 1 0 0  ;
				- m_nIdent = 0;
				- m_bImplicitSetRectPoints = 0;
			}
			- m_color = { IColor 
				- m_fgColor = 34;
				- m_bgColor = 34;
				- m_bgFlag = 0;
			}
			- m_lineWidth = 1;
			- m_arrow = 2 -7.58284461212276 11.6937230001449  -10.242824030947 11.6937230001449  ;
			- m_lineWidth = 1;
			- m_anglePoint1 = 0 0 ;
			- m_anglePoint2 = 0 0 ;
			- m_line_style = 2;
			- m_pInverseModelObject = { ILinkHandle 
				- _m2Class = "";
			}
			- m_pInstance = { ILinkInstanceHandle 
				- _m2Class = "";
			}
			- m_pInverseInstance = { ILinkInstanceHandle 
				- _m2Class = "";
			}
			- m_bShowSourceMultiplicity = 1;
			- m_bShowSourceRole = 0;
			- m_bShowTargetMultiplicity = 1;
			- m_bShowTargetRole = 0;
			- m_bShowLinkName = 1;
			- m_bShowSpecificType = 0;
			- m_bInstance = 0;
			- m_bShowQualifier1 = 0;
			- m_bShowQualifier2 = 0;
			- m_sourceRole = { CGIText 
				- m_str = "";
				- m_style = "Arial" 10 0 0 0 1 ;
				- m_color = { IColor 
					- m_fgColor = 2;
					- m_bgColor = 2;
					- m_bgFlag = 0;
				}
				- m_position = 1 0 0  ;
				- m_nIdent = 1;
				- m_bImplicitSetRectPoints = 0;
			}
			- m_targetRole = { CGIText 
				- m_str = "";
				- m_style = "Arial" 10 0 0 0 1 ;
				- m_color = { IColor 
					- m_fgColor = 2;
					- m_bgColor = 2;
					- m_bgFlag = 0;
				}
				- m_position = 1 0 0  ;
				- m_nIdent = 2;
				- m_bImplicitSetRectPoints = 0;
			}
			- m_sourceMultiplicity = { CGIText 
				- m_str = "";
				- m_style = "Arial" 10 0 0 0 1 ;
				- m_color = { IColor 
					- m_fgColor = 2;
					- m_bgColor = 2;
					- m_bgFlag = 0;
				}
				- m_position = 1 0 0  ;
				- m_nIdent = 3;
				- m_bImplicitSetRectPoints = 0;
			}
			- m_targetMultiplicity = { CGIText 
				- m_str = "1";
				- m_style = "Arial" 10 0 0 0 1 ;
				- m_color = { IColor 
					- m_fgColor = 2;
					- m_bgColor = 2;
					- m_bgFlag = 0;
				}
				- m_position = 1 -9.09918514233044 11.793695666622  ;
				- m_nIdent = 4;
				- m_bImplicitSetRectPoints = 0;
			}
			- m_sourceQualifier = { CGIText 
				- m_str = "";
				- m_style = "Arial" 10 0 0 0 1 ;
				- m_color = { IColor 
					- m_fgColor = 0;
					- m_bgColor = 0;
					- m_bgFlag = 0;
				}
				- m_position = 1 0 0  ;
				- m_nIdent = 5;
				- m_bImplicitSetRectPoints = 0;
			}
			- m_targetQualifier = { CGIText 
				- m_str = "";
				- m_style = "Arial" 10 0 0 0 1 ;
				- m_color = { IColor 
					- m_fgColor = 0;
					- m_bgColor = 0;
					- m_bgFlag = 0;
				}
				- m_position = 1 0 0  ;
				- m_nIdent = 6;
				- m_bImplicitSetRectPoints = 0;
			}
			- m_specificType = type_122;
		}
		{ CGIClassAndInstance 
			- _id = GUID e0b16877-1db3-4013-a383-45fd23a0b65a;
			- m_type = 87;
			- m_pModelObject = { IHandle 
				- _m2Class = "IClass";
				- _filename = "Application.sbs";
				- _subsystem = "Application";
				- _class = "";
				- _name = "MissileGuidanceTasks_task_0040ms";
				- _id = GUID 46d70d60-bb42-4a39-8c9d-3b5be423aba3;
			}
			- m_pParent = GUID 1a454c08-b895-4d37-97e7-c72ee09fefad;
			- m_name = { CGIText 
				- m_str = "Application::MissileGuidanceTasks_task_0040ms";
				- m_style = "Arial" 10 0 0 1 2 ;
				- m_color = { IColor 
					- m_fgColor = 44;
					- m_bgColor = 44;
					- m_bgFlag = 0;
				}
				- m_position = 1 0 0  ;
				- m_nIdent = 0;
				- m_bImplicitSetRectPoints = 0;
			}
			- m_drawBehavior = 26632;
			- m_color = { IColor 
				- m_fgColor = 44;
				- m_bgColor = 21;
				- m_bgFlag = 0;
			}
			- m_lineWidth = 1;
			- m_polygon = 4 19.5489454598841 19.0352661960997  25.9328960650622 19.0352661960997  25.9328960650622 17.1732806029227  19.5489454598841 17.1732806029227  ;
			- m_nNameFormat = 0;
			- m_nIsNameFormat = 0;
			- Attrs = { IRPYRawContainer 
				- size = 0;
			}
			- Operations = { IRPYRawContainer 
				- size = 0;
			}
			- m_dSeparatorPosition = 0.5;
			- m_pInstance = NULL;
		}
		{ CGIClassAndInstance 
			- _id = GUID f3145d33-20dc-405f-a92a-78b87598db84;
			- m_type = 87;
			- m_pModelObject = { IHandle 
				- _m2Class = "IClass";
				- _filename = "TargetPkg.sbs";
				- _subsystem = "TargetPkg";
				- _class = "";
				- _name = "Target";
				- _id = GUID 7d73ed67-6670-4690-97c9-6fe046428225;
			}
			- m_pParent = GUID 1a454c08-b895-4d37-97e7-c72ee09fefad;
			- m_name = { CGIText 
				- m_str = "TargetPkg::Target";
				- m_style = "Arial" 10 0 0 0 1 ;
				- m_color = { IColor 
					- m_fgColor = 44;
					- m_bgColor = 44;
					- m_bgFlag = 0;
				}
				- m_position = 1 0 0  ;
				- m_nIdent = 0;
				- m_bImplicitSetRectPoints = 0;
			}
			- m_drawBehavior = 26632;
			- m_color = { IColor 
				- m_fgColor = 44;
				- m_bgColor = 21;
				- m_bgFlag = 0;
			}
			- m_lineWidth = 1;
			- m_polygon = 4 1.46108541187952 15.8432908935106  7.8450360170576 15.8432908935106  7.8450360170576 13.9813053003337  1.46108541187952 13.9813053003337  ;
			- m_nNameFormat = 0;
			- m_nIsNameFormat = 0;
			- Attrs = { IRPYRawContainer 
				- size = 0;
			}
			- Operations = { IRPYRawContainer 
				- size = 0;
			}
			- m_dSeparatorPosition = 0.5;
			- m_pInstance = NULL;
		}
		{ CGILink 
			- _id = GUID f4d733de-be1a-4458-82f0-9b91ad8e3227;
			- m_type = 93;
			- m_pModelObject = { IHandle 
				- _m2Class = "ILink";
				- _filename = "Application.sbs";
				- _subsystem = "Application";
				- _class = "MissileGuidance";
				- _name = "task_0040ms";
				- _id = GUID 64625765-02ab-49a0-92c8-bb6c1c32cbe6;
			}
			- m_pParent = ;
			- m_name = { CGIText 
				- m_str = "";
				- m_style = "Arial" 10 0 0 0 1 ;
				- m_color = { IColor 
					- m_fgColor = 21;
					- m_bgColor = 21;
					- m_bgFlag = 0;
				}
				- m_position = 1 0 0  ;
				- m_nIdent = 0;
				- m_bImplicitSetRectPoints = 0;
			}
			- m_drawBehavior = 4096;
			- m_pSource = GUID 126b7fab-090c-4793-8898-14335f6f3183;
			- m_sourceType = 'F';
			- m_pTarget = GUID e0b16877-1db3-4013-a383-45fd23a0b65a;
			- m_targetType = 'T';
			- m_direction = ' ';
			- m_rpn = { CGIText 
				- m_str = "";
				- m_style = "Arial" 10 0 0 0 1 ;
				- m_color = { IColor 
					- m_fgColor = 2;
					- m_bgColor = 2;
					- m_bgFlag = 0;
				}
				- m_position = 1 0 0  ;
				- m_nIdent = 0;
				- m_bImplicitSetRectPoints = 0;
			}
			- m_color = { IColor 
				- m_fgColor = 34;
				- m_bgColor = 34;
				- m_bgFlag = 0;
			}
			- m_lineWidth = 1;
			- m_arrow = 2 16.8889660410599 18.077673605323  19.5489454598841 18.077673605323  ;
			- m_lineWidth = 1;
			- m_anglePoint1 = 0 0 ;
			- m_anglePoint2 = 0 0 ;
			- m_line_style = 2;
			- m_pInverseModelObject = { ILinkHandle 
				- _m2Class = "";
			}
			- m_pInstance = { ILinkInstanceHandle 
				- _m2Class = "";
			}
			- m_pInverseInstance = { ILinkInstanceHandle 
				- _m2Class = "";
			}
			- m_bShowSourceMultiplicity = 1;
			- m_bShowSourceRole = 0;
			- m_bShowTargetMultiplicity = 1;
			- m_bShowTargetRole = 0;
			- m_bShowLinkName = 1;
			- m_bShowSpecificType = 0;
			- m_bInstance = 0;
			- m_bShowQualifier1 = 0;
			- m_bShowQualifier2 = 0;
			- m_sourceRole = { CGIText 
				- m_str = "";
				- m_style = "Arial" 10 0 0 0 1 ;
				- m_color = { IColor 
					- m_fgColor = 2;
					- m_bgColor = 2;
					- m_bgFlag = 0;
				}
				- m_position = 1 0 0  ;
				- m_nIdent = 1;
				- m_bImplicitSetRectPoints = 0;
			}
			- m_targetRole = { CGIText 
				- m_str = "";
				- m_style = "Arial" 10 0 0 0 1 ;
				- m_color = { IColor 
					- m_fgColor = 2;
					- m_bgColor = 2;
					- m_bgFlag = 0;
				}
				- m_position = 1 0 0  ;
				- m_nIdent = 2;
				- m_bImplicitSetRectPoints = 0;
			}
			- m_sourceMultiplicity = { CGIText 
				- m_str = "";
				- m_style = "Arial" 10 0 0 0 1 ;
				- m_color = { IColor 
					- m_fgColor = 2;
					- m_bgColor = 2;
					- m_bgFlag = 0;
				}
				- m_position = 1 0 0  ;
				- m_nIdent = 3;
				- m_bImplicitSetRectPoints = 0;
			}
			- m_targetMultiplicity = { CGIText 
				- m_str = "1";
				- m_style = "Arial" 10 0 0 2 1 ;
				- m_color = { IColor 
					- m_fgColor = 2;
					- m_bgColor = 2;
					- m_bgFlag = 0;
				}
				- m_position = 1 18.4372263242935 18.0159195231356  ;
				- m_nIdent = 4;
				- m_bImplicitSetRectPoints = 0;
			}
			- m_sourceQualifier = { CGIText 
				- m_str = "";
				- m_style = "Arial" 10 0 0 0 1 ;
				- m_color = { IColor 
					- m_fgColor = 0;
					- m_bgColor = 0;
					- m_bgFlag = 0;
				}
				- m_position = 1 0 0  ;
				- m_nIdent = 5;
				- m_bImplicitSetRectPoints = 0;
			}
			- m_targetQualifier = { CGIText 
				- m_str = "";
				- m_style = "Arial" 10 0 0 0 1 ;
				- m_color = { IColor 
					- m_fgColor = 0;
					- m_bgColor = 0;
					- m_bgFlag = 0;
				}
				- m_position = 1 0 0  ;
				- m_nIdent = 6;
				- m_bImplicitSetRectPoints = 0;
			}
			- m_specificType = type_122;
		}
		{ CGIClassAndInstance 
			- _id = GUID f7c41e5b-3a9e-42b3-b07c-756ee0689dc9;
			- m_type = 87;
			- m_pModelObject = { IHandle 
				- _m2Class = "IClass";
				- _filename = "Application.sbs";
				- _subsystem = "Application";
				- _class = "";
				- _name = "MissileGuidanceTasks_task_0010ms";
				- _id = GUID e2ea6d82-5849-4dee-8280-b916dc1f5385;
			}
			- m_pParent = GUID 1a454c08-b895-4d37-97e7-c72ee09fefad;
			- m_name = { CGIText 
				- m_str = "Application::MissileGuidanceTasks_task_0010ms";
				- m_style = "Arial" 10 0 0 0 1 ;
				- m_color = { IColor 
					- m_fgColor = 44;
					- m_bgColor = 44;
					- m_bgFlag = 0;
				}
				- m_position = 1 0 0  ;
				- m_nIdent = 0;
				- m_bImplicitSetRectPoints = 0;
			}
			- m_drawBehavior = 26632;
			- m_color = { IColor 
				- m_fgColor = 44;
				- m_bgColor = 21;
				- m_bgFlag = 0;
			}
			- m_lineWidth = 1;
			- m_polygon = 4 1.46108541187952 19.0352661960997  7.8450360170576 19.0352661960997  7.8450360170576 17.1732806029227  1.46108541187952 17.1732806029227  ;
			- m_nNameFormat = 0;
			- m_nIsNameFormat = 0;
			- Attrs = { IRPYRawContainer 
				- size = 0;
			}
			- Operations = { IRPYRawContainer 
				- size = 0;
			}
			- m_dSeparatorPosition = 0.5;
			- m_pInstance = NULL;
		}
		{ CGILink 
			- _id = GUID ffcbeeea-2628-4fb0-88bd-782b680041bc;
			- m_type = 93;
			- m_pModelObject = { IHandle 
				- _m2Class = "ILink";
				- _filename = "Application.sbs";
				- _subsystem = "Application";
				- _class = "Airframe";
				- _name = "itsAeroDynamics";
				- _id = GUID c854aa55-7d89-4e77-8043-ea3947e755b0;
			}
			- m_pParent = ;
			- m_name = { CGIText 
				- m_str = "";
				- m_style = "Arial" 10 0 0 0 1 ;
				- m_color = { IColor 
					- m_fgColor = 21;
					- m_bgColor = 21;
					- m_bgFlag = 0;
				}
				- m_position = 1 0 0  ;
				- m_nIdent = 0;
				- m_bImplicitSetRectPoints = 0;
			}
			- m_drawBehavior = 4096;
			- m_pSource = GUID 892d6922-bbeb-4937-a587-03af8b48ef78;
			- m_sourceType = 'F';
			- m_pTarget = GUID cefcac69-6f3c-46bf-888f-b9c0c95a666a;
			- m_targetType = 'T';
			- m_direction = ' ';
			- m_rpn = { CGIText 
				- m_str = "";
				- m_style = "Arial" 10 0 0 0 1 ;
				- m_color = { IColor 
					- m_fgColor = 2;
					- m_bgColor = 2;
					- m_bgFlag = 0;
				}
				- m_position = 1 0 0  ;
				- m_nIdent = 0;
				- m_bImplicitSetRectPoints = 0;
			}
			- m_color = { IColor 
				- m_fgColor = 34;
				- m_bgColor = 34;
				- m_bgFlag = 0;
			}
			- m_lineWidth = 1;
			- m_arrow = 2 -4.39086930953372 10.7893299977447  -4.39086930953372 9.45934028833256  ;
			- m_lineWidth = 1;
			- m_anglePoint1 = 0 0 ;
			- m_anglePoint2 = 0 0 ;
			- m_line_style = 2;
			- m_pInverseModelObject = { ILinkHandle 
				- _m2Class = "";
			}
			- m_pInstance = { ILinkInstanceHandle 
				- _m2Class = "";
			}
			- m_pInverseInstance = { ILinkInstanceHandle 
				- _m2Class = "";
			}
			- m_bShowSourceMultiplicity = 1;
			- m_bShowSourceRole = 0;
			- m_bShowTargetMultiplicity = 1;
			- m_bShowTargetRole = 0;
			- m_bShowLinkName = 1;
			- m_bShowSpecificType = 0;
			- m_bInstance = 0;
			- m_bShowQualifier1 = 0;
			- m_bShowQualifier2 = 0;
			- m_sourceRole = { CGIText 
				- m_str = "";
				- m_style = "Arial" 10 0 0 0 1 ;
				- m_color = { IColor 
					- m_fgColor = 2;
					- m_bgColor = 2;
					- m_bgFlag = 0;
				}
				- m_position = 1 0 0  ;
				- m_nIdent = 1;
				- m_bImplicitSetRectPoints = 0;
			}
			- m_targetRole = { CGIText 
				- m_str = "";
				- m_style = "Arial" 10 0 0 0 1 ;
				- m_color = { IColor 
					- m_fgColor = 2;
					- m_bgColor = 2;
					- m_bgFlag = 0;
				}
				- m_position = 1 0 0  ;
				- m_nIdent = 2;
				- m_bImplicitSetRectPoints = 0;
			}
			- m_sourceMultiplicity = { CGIText 
				- m_str = "";
				- m_style = "Arial" 10 0 0 0 1 ;
				- m_color = { IColor 
					- m_fgColor = 2;
					- m_bgColor = 2;
					- m_bgFlag = 0;
				}
				- m_position = 1 0 0  ;
				- m_nIdent = 3;
				- m_bImplicitSetRectPoints = 0;
			}
			- m_targetMultiplicity = { CGIText 
				- m_str = "1";
				- m_style = "Arial" 10 0 0 0 1 ;
				- m_color = { IColor 
					- m_fgColor = 2;
					- m_bgColor = 2;
					- m_bgFlag = 0;
				}
				- m_position = 1 -4.31106992696897 10.6231524608614  ;
				- m_nIdent = 4;
				- m_bImplicitSetRectPoints = 0;
			}
			- m_sourceQualifier = { CGIText 
				- m_str = "";
				- m_style = "Arial" 10 0 0 0 1 ;
				- m_color = { IColor 
					- m_fgColor = 0;
					- m_bgColor = 0;
					- m_bgFlag = 0;
				}
				- m_position = 1 0 0  ;
				- m_nIdent = 5;
				- m_bImplicitSetRectPoints = 0;
			}
			- m_targetQualifier = { CGIText 
				- m_str = "";
				- m_style = "Arial" 10 0 0 0 1 ;
				- m_color = { IColor 
					- m_fgColor = 0;
					- m_bgColor = 0;
					- m_bgFlag = 0;
				}
				- m_position = 1 0 0  ;
				- m_nIdent = 6;
				- m_bImplicitSetRectPoints = 0;
			}
			- m_specificType = type_122;
		}
		{ CGIClassAndInstance 
			- _id = GUID 126b7fab-090c-4793-8898-14335f6f3183;
			- m_type = 87;
			- m_pModelObject = { IHandle 
				- _m2Class = "IClass";
				- _filename = "Application.sbs";
				- _subsystem = "Application";
				- _class = "";
				- _name = "MissileGuidance";
				- _id = GUID 9fdc833d-bd71-4c60-b86e-77cbbbc52533;
			}
			- m_pParent = GUID 1a454c08-b895-4d37-97e7-c72ee09fefad;
			- m_name = { CGIText 
				- m_str = "Application::MissileGuidance";
				- m_style = "Arial" 10 0 0 0 1 ;
				- m_color = { IColor 
					- m_fgColor = 44;
					- m_bgColor = 44;
					- m_bgFlag = 0;
				}
				- m_position = 1 0 0  ;
				- m_nIdent = 0;
				- m_bImplicitSetRectPoints = 0;
			}
			- m_drawBehavior = 26632;
			- m_color = { IColor 
				- m_fgColor = 44;
				- m_bgColor = 21;
				- m_bgFlag = 0;
			}
			- m_lineWidth = 1;
			- m_polygon = 4 10.5050154358818 19.0352661960997  16.8889660410599 19.0352661960997  16.8889660410599 17.1732806029227  10.5050154358818 17.1732806029227  ;
			- m_nNameFormat = 0;
			- m_nIsNameFormat = 0;
			- Attrs = { IRPYRawContainer 
				- size = 0;
			}
			- Operations = { IRPYRawContainer 
				- size = 0;
			}
			- m_dSeparatorPosition = 0.5;
			- m_pInstance = NULL;
		}
		{ CGICompositeClass 
			- _id = GUID 1a454c08-b895-4d37-97e7-c72ee09fefad;
			- m_type = 78;
			- m_pModelObject = { IHandle 
				- _m2Class = "IClass";
				- _filename = "Default.sbs";
				- _subsystem = "Default";
				- _class = "";
				- _name = "TopLevel";
				- _id = GUID 4582fb6d-0ad0-11d7-b329-00c04f680d9d;
			}
			- m_pParent = ;
			- m_name = { CGIText 
				- m_str = "TopLevel";
				- m_style = "Arial" 10 0 0 0 1 ;
				- m_color = { IColor 
					- m_fgColor = 0;
					- m_bgColor = 0;
					- m_bgFlag = 0;
				}
				- m_position = 1 0 0  ;
				- m_nIdent = 0;
				- m_bImplicitSetRectPoints = 0;
			}
			- m_drawBehavior = 0;
			- m_color = { IColor 
				- m_fgColor = 1;
				- m_bgColor = 1;
				- m_bgFlag = 1;
			}
			- m_lineWidth = 0;
			- m_polygon = 4 -16.626774636125 22.2272414986887  25.9328960650622 22.2272414986887  25.9328960650622 7.59735469515562  -16.626774636125 7.59735469515562  ;
			- m_nNameFormat = 0;
			- m_nIsNameFormat = 0;
		}
		{ CGIClassAndInstance 
			- _id = GUID 1e15f0d7-9b42-4f84-8ad3-6bdc2621f508;
			- m_type = 87;
			- m_pModelObject = { IHandle 
				- _m2Class = "IClass";
				- _filename = "Application.sbs";
				- _subsystem = "Application";
				- _class = "";
				- _name = "MissileGuidanceTasks_task_0001ms";
				- _id = GUID 400167f3-01f3-4f84-b451-296ea97388c4;
			}
			- m_pParent = GUID 1a454c08-b895-4d37-97e7-c72ee09fefad;
			- m_name = { CGIText 
				- m_str = "Application::MissileGuidanceTasks_task_0001ms";
				- m_style = "Arial" 10 0 0 0 1 ;
				- m_color = { IColor 
					- m_fgColor = 44;
					- m_bgColor = 44;
					- m_bgFlag = 0;
				}
				- m_position = 1 0 0  ;
				- m_nIdent = 0;
				- m_bImplicitSetRectPoints = 0;
			}
			- m_drawBehavior = 26632;
			- m_color = { IColor 
				- m_fgColor = 44;
				- m_bgColor = 21;
				- m_bgFlag = 0;
			}
			- m_lineWidth = 1;
			- m_polygon = 4 10.5050154358818 12.6513155909216  16.8889660410599 12.6513155909216  16.8889660410599 10.7893299977447  10.5050154358818 10.7893299977447  ;
			- m_nNameFormat = 0;
			- m_nIsNameFormat = 0;
			- Attrs = { IRPYRawContainer 
				- size = 0;
			}
			- Operations = { IRPYRawContainer 
				- size = 0;
			}
			- m_dSeparatorPosition = 0.5;
			- m_pInstance = NULL;
		}
		{ CGIClassAndInstance 
			- _id = GUID 250b20a7-1597-4293-9b03-9fb65e39ad08;
			- m_type = 87;
			- m_pModelObject = { IHandle 
				- _m2Class = "IClass";
				- _filename = "AirframePkg.sbs";
				- _subsystem = "AirframePkg";
				- _class = "";
				- _name = "FinActuator";
				- _id = GUID 07a2767e-6557-4476-8be3-4b2e1b59c601;
			}
			- m_pParent = GUID 1a454c08-b895-4d37-97e7-c72ee09fefad;
			- m_name = { CGIText 
				- m_str = "AirframePkg::FinActuator";
				- m_style = "Arial" 10 0 0 0 1 ;
				- m_color = { IColor 
					- m_fgColor = 44;
					- m_bgColor = 44;
					- m_bgFlag = 0;
				}
				- m_position = 1 0 0  ;
				- m_nIdent = 0;
				- m_bImplicitSetRectPoints = 0;
			}
			- m_drawBehavior = 26632;
			- m_color = { IColor 
				- m_fgColor = 44;
				- m_bgColor = 21;
				- m_bgFlag = 0;
			}
			- m_lineWidth = 1;
			- m_polygon = 4 -7.58284461212276 15.8432908935106  -1.19889400694468 15.8432908935106  -1.19889400694468 13.9813053003337  -7.58284461212276 13.9813053003337  ;
			- m_nNameFormat = 0;
			- m_nIsNameFormat = 0;
			- Attrs = { IRPYRawContainer 
				- size = 0;
			}
			- Operations = { IRPYRawContainer 
				- size = 0;
			}
			- m_dSeparatorPosition = 0.5;
			- m_pInstance = NULL;
		}
		{ CGILink 
			- _id = GUID 2b646da6-31bb-4462-893c-51775748a422;
			- m_type = 93;
			- m_pModelObject = { IHandle 
				- _m2Class = "ILink";
				- _filename = "Application.sbs";
				- _subsystem = "Application";
				- _class = "Airframe";
				- _name = "itsFinDynamics";
				- _id = GUID 58497f3c-69bc-4eb9-bfa0-40257830aaf1;
			}
			- m_pParent = ;
			- m_name = { CGIText 
				- m_str = "";
				- m_style = "Arial" 10 0 0 0 1 ;
				- m_color = { IColor 
					- m_fgColor = 21;
					- m_bgColor = 21;
					- m_bgFlag = 0;
				}
				- m_position = 1 0 0  ;
				- m_nIdent = 0;
				- m_bImplicitSetRectPoints = 0;
			}
			- m_drawBehavior = 4096;
			- m_pSource = GUID 892d6922-bbeb-4937-a587-03af8b48ef78;
			- m_sourceType = 'F';
			- m_pTarget = GUID 250b20a7-1597-4293-9b03-9fb65e39ad08;
			- m_targetType = 'T';
			- m_direction = ' ';
			- m_rpn = { CGIText 
				- m_str = "";
				- m_style = "Arial" 10 0 0 0 1 ;
				- m_color = { IColor 
					- m_fgColor = 2;
					- m_bgColor = 2;
					- m_bgFlag = 0;
				}
				- m_position = 1 0 0  ;
				- m_nIdent = 0;
				- m_bImplicitSetRectPoints = 0;
			}
			- m_color = { IColor 
				- m_fgColor = 34;
				- m_bgColor = 34;
				- m_bgFlag = 0;
			}
			- m_lineWidth = 1;
			- m_arrow = 2 -4.39086930953372 12.6513155909216  -4.39086930953372 13.9813053003337  ;
			- m_lineWidth = 1;
			- m_anglePoint1 = 0 0 ;
			- m_anglePoint2 = 0 0 ;
			- m_line_style = 2;
			- m_pInverseModelObject = { ILinkHandle 
				- _m2Class = "";
			}
			- m_pInstance = { ILinkInstanceHandle 
				- _m2Class = "";
			}
			- m_pInverseInstance = { ILinkInstanceHandle 
				- _m2Class = "";
			}
			- m_bShowSourceMultiplicity = 1;
			- m_bShowSourceRole = 0;
			- m_bShowTargetMultiplicity = 1;
			- m_bShowTargetRole = 0;
			- m_bShowLinkName = 1;
			- m_bShowSpecificType = 0;
			- m_bInstance = 0;
			- m_bShowQualifier1 = 0;
			- m_bShowQualifier2 = 0;
			- m_sourceRole = { CGIText 
				- m_str = "";
				- m_style = "Arial" 10 0 0 0 1 ;
				- m_color = { IColor 
					- m_fgColor = 2;
					- m_bgColor = 2;
					- m_bgFlag = 0;
				}
				- m_position = 1 0 0  ;
				- m_nIdent = 1;
				- m_bImplicitSetRectPoints = 0;
			}
			- m_targetRole = { CGIText 
				- m_str = "";
				- m_style = "Arial" 10 0 0 0 1 ;
				- m_color = { IColor 
					- m_fgColor = 2;
					- m_bgColor = 2;
					- m_bgFlag = 0;
				}
				- m_position = 1 0 0  ;
				- m_nIdent = 2;
				- m_bImplicitSetRectPoints = 0;
			}
			- m_sourceMultiplicity = { CGIText 
				- m_str = "";
				- m_style = "Arial" 10 0 0 0 1 ;
				- m_color = { IColor 
					- m_fgColor = 2;
					- m_bgColor = 2;
					- m_bgFlag = 0;
				}
				- m_position = 1 0 0  ;
				- m_nIdent = 3;
				- m_bImplicitSetRectPoints = 0;
			}
			- m_targetMultiplicity = { CGIText 
				- m_str = "1";
				- m_style = "Arial" 10 0 0 0 2 ;
				- m_color = { IColor 
					- m_fgColor = 2;
					- m_bgColor = 2;
					- m_bgFlag = 0;
				}
				- m_position = 1 -4.31106992696897 12.3642388723825  ;
				- m_nIdent = 4;
				- m_bImplicitSetRectPoints = 0;
			}
			- m_sourceQualifier = { CGIText 
				- m_str = "";
				- m_style = "Arial" 10 0 0 0 1 ;
				- m_color = { IColor 
					- m_fgColor = 0;
					- m_bgColor = 0;
					- m_bgFlag = 0;
				}
				- m_position = 1 0 0  ;
				- m_nIdent = 5;
				- m_bImplicitSetRectPoints = 0;
			}
			- m_targetQualifier = { CGIText 
				- m_str = "";
				- m_style = "Arial" 10 0 0 0 1 ;
				- m_color = { IColor 
					- m_fgColor = 0;
					- m_bgColor = 0;
					- m_bgFlag = 0;
				}
				- m_position = 1 0 0  ;
				- m_nIdent = 6;
				- m_bImplicitSetRectPoints = 0;
			}
			- m_specificType = type_122;
		}
		{ CGILink 
			- _id = GUID 2c43498f-e93f-4c0e-b4b8-bc5007a14553;
			- m_type = 92;
			- m_pModelObject = { IHandle 
				- _m2Class = "ILink";
				- _filename = "TrackingSubsystemPkg.sbs";
				- _subsystem = "TrackingSubsystemPkg";
				- _class = "TrackingSubsystem";
				- _name = "itsGuidanceLogic";
				- _id = GUID ae3b519d-ad7b-4adb-912c-1d91dca8bc73;
			}
			- m_pParent = ;
			- m_name = { CGIText 
				- m_str = "";
				- m_style = "Arial" 10 0 0 0 1 ;
				- m_color = { IColor 
					- m_fgColor = 21;
					- m_bgColor = 21;
					- m_bgFlag = 0;
				}
				- m_position = 1 0 0  ;
				- m_nIdent = 0;
				- m_bImplicitSetRectPoints = 0;
			}
			- m_drawBehavior = 4096;
			- m_pSource = GUID d4501ecb-61d1-410b-8e12-7b0ef3fe06f8;
			- m_sourceType = 'F';
			- m_pTarget = GUID de55ca68-7233-42bb-acbd-2fc4b3ac4ed4;
			- m_targetType = 'T';
			- m_direction = ' ';
			- m_rpn = { CGIText 
				- m_str = "";
				- m_style = "Arial" 10 0 0 0 1 ;
				- m_color = { IColor 
					- m_fgColor = 2;
					- m_bgColor = 2;
					- m_bgFlag = 0;
				}
				- m_position = 1 0 0  ;
				- m_nIdent = 0;
				- m_bImplicitSetRectPoints = 0;
			}
			- m_color = { IColor 
				- m_fgColor = 4;
				- m_bgColor = 4;
				- m_bgFlag = 0;
			}
			- m_lineWidth = 1;
			- m_arrow = 2 -4.39086930953372 20.3652559055118  -4.39086930953372 19.0352661960997  ;
			- m_lineWidth = 1;
			- m_anglePoint1 = 0 0 ;
			- m_anglePoint2 = 0 0 ;
			- m_line_style = 2;
			- m_pInverseModelObject = { ILinkHandle 
				- _m2Class = "";
			}
			- m_pInstance = { ILinkInstanceHandle 
				- _m2Class = "";
			}
			- m_pInverseInstance = { ILinkInstanceHandle 
				- _m2Class = "";
			}
			- m_bShowSourceMultiplicity = 1;
			- m_bShowSourceRole = 0;
			- m_bShowTargetMultiplicity = 1;
			- m_bShowTargetRole = 0;
			- m_bShowLinkName = 1;
			- m_bShowSpecificType = 0;
			- m_bInstance = 0;
			- m_bShowQualifier1 = 0;
			- m_bShowQualifier2 = 0;
			- m_sourceRole = { CGIText 
				- m_str = "";
				- m_style = "Arial" 10 0 0 0 1 ;
				- m_color = { IColor 
					- m_fgColor = 2;
					- m_bgColor = 2;
					- m_bgFlag = 0;
				}
				- m_position = 1 0 0  ;
				- m_nIdent = 1;
				- m_bImplicitSetRectPoints = 0;
			}
			- m_targetRole = { CGIText 
				- m_str = "";
				- m_style = "Arial" 10 0 0 0 1 ;
				- m_color = { IColor 
					- m_fgColor = 2;
					- m_bgColor = 2;
					- m_bgFlag = 0;
				}
				- m_position = 1 0 0  ;
				- m_nIdent = 2;
				- m_bImplicitSetRectPoints = 0;
			}
			- m_sourceMultiplicity = { CGIText 
				- m_str = "";
				- m_style = "Arial" 10 0 0 0 1 ;
				- m_color = { IColor 
					- m_fgColor = 2;
					- m_bgColor = 2;
					- m_bgFlag = 0;
				}
				- m_position = 1 0 0  ;
				- m_nIdent = 3;
				- m_bImplicitSetRectPoints = 0;
			}