I-Logix-RPY-Archive version 4.0.4 C++
{ IDiagram 
	- _id = GUID 0ebe013b-55d9-4820-ba9b-c5b66642057a;
	- _myState = 8192;
	- _name = "ApplicationCG";
	- _graphicChart = { CGIClassChart 
		- _id = GUID 6cdd71a6-490e-438b-a560-602fc360295b;
		- m_type = 0;
		- m_pModelObject = { IHandle 
			- _m2Class = "IDiagram";
			- _id = GUID 0ebe013b-55d9-4820-ba9b-c5b66642057a;
		}
		- m_pParent = ;
		- m_name = { CGIText 
			- m_str = "";
			- m_style = "Arial" 10 0 0 0 1 ;
			- m_color = { IColor 
				- m_fgColor = 0;
				- m_bgColor = 0;
				- m_bgFlag = 0;
			}
			- m_position = 1 0 0  ;
			- m_nIdent = 0;
			- m_bImplicitSetRectPoints = 0;
		}
		- m_drawBehavior = 0;
		- elementList = 28;
		{ CGIClassAndInstance 
			- _id = GUID e68df088-c96e-4905-9ef2-af87b8e7d629;
			- m_type = 87;
			- m_pModelObject = { IHandle 
				- _m2Class = "IClass";
				- _filename = "AirframePkg.sbs";
				- _subsystem = "AirframePkg";
				- _class = "";
				- _name = "AeroDynamics";
				- _id = GUID 22dfd167-3d2b-43c0-96ac-aee80d530cfb;
			}
			- m_pParent = GUID c9f19d8d-8daa-4274-be40-bcd8c3030026;
			- m_name = { CGIText 
				- m_str = "AeroDynamics";
				- m_style = "Arial" 10 0 0 0 1 ;
				- m_color = { IColor 
					- m_fgColor = 44;
					- m_bgColor = 44;
					- m_bgFlag = 0;
				}
				- m_position = 1 0 0  ;
				- m_nIdent = 0;
				- m_bImplicitSetRectPoints = 0;
			}
			- m_drawBehavior = 28680;
			- m_color = { IColor 
				- m_fgColor = 44;
				- m_bgColor = 21;
				- m_bgFlag = 0;
			}
			- m_lineWidth = 1;
			- m_polygon = 4 -16.626774636125 24.1956262686186  -10.242824030947 24.1956262686186  -10.242824030947 22.3336406754417  -16.626774636125 22.3336406754417  ;
			- m_nNameFormat = 0;
			- m_nIsNameFormat = 0;
			- Attrs = { IRPYRawContainer 
				- size = 0;
			}
			- Operations = { IRPYRawContainer 
				- size = 0;
			}
			- m_dSeparatorPosition = 0.5;
			- m_pInstance = NULL;
		}
		{ CGILink 
			- _id = GUID ec7121e4-2ea0-417d-a647-a0fc9f503448;
			- m_type = 93;
			- m_pModelObject = { IHandle 
				- _m2Class = "ILink";
				- _filename = "Application.sbs";
				- _subsystem = "Application";
				- _class = "App1_task_0001ms";
				- _name = "itsAutoPilot";
				- _id = GUID 3b618a7c-8c17-41f6-83a8-ed8c6c3bd202;
			}
			- m_pParent = ;
			- m_name = { CGIText 
				- m_str = "";
				- m_style = "Arial" 10 0 0 0 1 ;
				- m_color = { IColor 
					- m_fgColor = 21;
					- m_bgColor = 21;
					- m_bgFlag = 0;
				}
				- m_position = 1 0 0  ;
				- m_nIdent = 0;
				- m_bImplicitSetRectPoints = 0;
			}
			- m_drawBehavior = 4096;
			- m_pSource = GUID 679ef5ad-4b0f-471e-8d55-be56b929970d;
			- m_sourceType = 'F';
			- m_pTarget = GUID 5d7d0263-1ec1-4c24-a42e-d3637494cd34;
			- m_targetType = 'T';
			- m_direction = ' ';
			- m_rpn = { CGIText 
				- m_str = "";
				- m_style = "Arial" 10 0 0 0 1 ;
				- m_color = { IColor 
					- m_fgColor = 2;
					- m_bgColor = 2;
					- m_bgFlag = 0;
				}
				- m_position = 1 0 0  ;
				- m_nIdent = 0;
				- m_bImplicitSetRectPoints = 0;
			}
			- m_color = { IColor 
				- m_fgColor = 34;
				- m_bgColor = 34;
				- m_bgFlag = 0;
			}
			- m_lineWidth = 1;
			- m_arrow = 2 -4.39086930953372 15.9496900702636  -4.39086930953372 14.6197003608515  ;
			- m_lineWidth = 1;
			- m_anglePoint1 = 0 0 ;
			- m_anglePoint2 = 0 0 ;
			- m_line_style = 2;
			- m_pInverseModelObject = { ILinkHandle 
				- _m2Class = "";
			}
			- m_pInstance = { ILinkInstanceHandle 
				- _m2Class = "";
			}
			- m_pInverseInstance = { ILinkInstanceHandle 
				- _m2Class = "";
			}
			- m_bShowSourceMultiplicity = 1;
			- m_bShowSourceRole = 0;
			- m_bShowTargetMultiplicity = 1;
			- m_bShowTargetRole = 0;
			- m_bShowLinkName = 1;
			- m_bShowSpecificType = 0;
			- m_bInstance = 0;
			- m_bShowQualifier1 = 0;
			- m_bShowQualifier2 = 0;
			- m_sourceRole = { CGIText 
				- m_str = "";
				- m_style = "Arial" 10 0 0 0 1 ;
				- m_color = { IColor 
					- m_fgColor = 2;
					- m_bgColor = 2;
					- m_bgFlag = 0;
				}
				- m_position = 1 0 0  ;
				- m_nIdent = 1;
				- m_bImplicitSetRectPoints = 0;
			}
			- m_targetRole = { CGIText 
				- m_str = "";
				- m_style = "Arial" 10 0 0 0 1 ;
				- m_color = { IColor 
					- m_fgColor = 2;
					- m_bgColor = 2;
					- m_bgFlag = 0;
				}
				- m_position = 1 0 0  ;
				- m_nIdent = 2;
				- m_bImplicitSetRectPoints = 0;
			}
			- m_sourceMultiplicity = { CGIText 
				- m_str = "";
				- m_style = "Arial" 10 0 0 0 1 ;
				- m_color = { IColor 
					- m_fgColor = 2;
					- m_bgColor = 2;
					- m_bgFlag = 0;
				}
				- m_position = 1 0 0  ;
				- m_nIdent = 3;
				- m_bImplicitSetRectPoints = 0;
			}
			- m_targetMultiplicity = { CGIText 
				- m_str = "1";
				- m_style = "Arial" 10 0 0 0 1 ;
				- m_color = { IColor 
					- m_fgColor = 2;
					- m_bgColor = 2;
					- m_bgFlag = 0;
				}
				- m_position = 1 0 0  ;
				- m_nIdent = 4;
				- m_bImplicitSetRectPoints = 0;
			}
			- m_sourceQualifier = { CGIText 
				- m_str = "";
				- m_style = "Arial" 10 0 0 0 1 ;
				- m_color = { IColor 
					- m_fgColor = 0;
					- m_bgColor = 0;
					- m_bgFlag = 0;
				}
				- m_position = 1 0 0  ;
				- m_nIdent = 5;
				- m_bImplicitSetRectPoints = 0;
			}
			- m_targetQualifier = { CGIText 
				- m_str = "";
				- m_style = "Arial" 10 0 0 0 1 ;
				- m_color = { IColor 
					- m_fgColor = 0;
					- m_bgColor = 0;
					- m_bgFlag = 0;
				}
				- m_position = 1 0 0  ;
				- m_nIdent = 6;
				- m_bImplicitSetRectPoints = 0;
			}
			- m_specificType = type_122;
		}
		{ CGIClassAndInstance 
			- _id = GUID f21a6f75-7c86-4b9a-9af4-8b6e3c5c58c7;
			- m_type = 87;
			- m_pModelObject = { IHandle 
				- _m2Class = "IClass";
				- _filename = "SeekerSubsystemPkg.sbs";
				- _subsystem = "SeekerSubsystemPkg";
				- _class = "";
				- _name = "SeekerSubsystem";
				- _id = GUID 2695c2fa-92d1-4fe6-9ebb-fa0b8cb97114;
			}
			- m_pParent = GUID c9f19d8d-8daa-4274-be40-bcd8c3030026;
			- m_name = { CGIText 
				- m_str = "SeekerSubsystem";
				- m_style = "Arial" 10 0 0 0 1 ;
				- m_color = { IColor 
					- m_fgColor = 44;
					- m_bgColor = 44;
					- m_bgFlag = 0;
				}
				- m_position = 1 0 0  ;
				- m_nIdent = 0;
				- m_bImplicitSetRectPoints = 0;
			}
			- m_drawBehavior = 28680;
			- m_color = { IColor 
				- m_fgColor = 44;
				- m_bgColor = 21;
				- m_bgFlag = 0;
			}
			- m_lineWidth = 1;
			- m_polygon = 4 1.46108541187952 14.6197003608515  7.8450360170576 14.6197003608515  7.8450360170576 12.7577147676746  1.46108541187952 12.7577147676746  ;
			- m_nNameFormat = 0;
			- m_nIsNameFormat = 0;
			- Attrs = { IRPYRawContainer 
				- size = 0;
			}
			- Operations = { IRPYRawContainer 
				- size = 0;
			}
			- m_dSeparatorPosition = 0.5;
			- m_pInstance = NULL;
		}
		{ CGIClassAndInstance 
			- _id = GUID 0e8e2fde-88c0-401e-9fee-7d12cafc9e0b;
			- m_type = 87;
			- m_pModelObject = { IHandle 
				- _m2Class = "IClass";
				- _filename = "TargetPkg.sbs";
				- _subsystem = "TargetPkg";
				- _class = "";
				- _name = "Target";
				- _id = GUID 7d73ed67-6670-4690-97c9-6fe046428225;
			}
			- m_pParent = GUID c9f19d8d-8daa-4274-be40-bcd8c3030026;
			- m_name = { CGIText 
				- m_str = "Target";
				- m_style = "Arial" 10 0 0 0 1 ;
				- m_color = { IColor 
					- m_fgColor = 44;
					- m_bgColor = 44;
					- m_bgFlag = 0;
				}
				- m_position = 1 0 0  ;
				- m_nIdent = 0;
				- m_bImplicitSetRectPoints = 0;
			}
			- m_drawBehavior = 28680;
			- m_color = { IColor 
				- m_fgColor = 44;
				- m_bgColor = 21;
				- m_bgFlag = 0;
			}
			- m_lineWidth = 1;
			- m_polygon = 4 19.5489454598841 14.6197003608515  25.9328960650622 14.6197003608515  25.9328960650622 12.7577147676746  19.5489454598841 12.7577147676746  ;
			- m_nNameFormat = 0;
			- m_nIsNameFormat = 0;
			- Attrs = { IRPYRawContainer 
				- size = 0;
			}
			- Operations = { IRPYRawContainer 
				- size = 0;
			}
			- m_dSeparatorPosition = 0.5;
			- m_pInstance = NULL;
		}
		{ CGILink 
			- _id = GUID 11b72170-3c31-4d9b-b590-680428183581;
			- m_type = 93;
			- m_pModelObject = { IHandle 
				- _m2Class = "ILink";
				- _filename = "Application.sbs";
				- _subsystem = "Application";
				- _class = "AirFrame";
				- _name = "itsAeroDynamics";
				- _id = GUID 6685627d-f329-4e0d-a3c7-e5479da0e7ad;
			}
			- m_pParent = ;
			- m_name = { CGIText 
				- m_str = "";
				- m_style = "Arial" 10 0 0 0 1 ;
				- m_color = { IColor 
					- m_fgColor = 21;
					- m_bgColor = 21;
					- m_bgFlag = 0;
				}
				- m_position = 1 0 0  ;
				- m_nIdent = 0;
				- m_bImplicitSetRectPoints = 0;
			}
			- m_drawBehavior = 4096;
			- m_pSource = GUID 8d32275b-4863-4aff-9ef1-30078082583e;
			- m_sourceType = 'F';
			- m_pTarget = GUID e68df088-c96e-4905-9ef2-af87b8e7d629;
			- m_targetType = 'T';
			- m_direction = ' ';
			- m_rpn = { CGIText 
				- m_str = "";
				- m_style = "Arial" 10 0 0 0 1 ;
				- m_color = { IColor 
					- m_fgColor = 2;
					- m_bgColor = 2;
					- m_bgFlag = 0;
				}
				- m_position = 1 0 0  ;
				- m_nIdent = 0;
				- m_bImplicitSetRectPoints = 0;
			}
			- m_color = { IColor 
				- m_fgColor = 34;
				- m_bgColor = 34;
				- m_bgFlag = 0;
			}
			- m_lineWidth = 1;
			- m_arrow = 2 -7.58284461212276 23.2912332662184  -10.242824030947 23.2912332662184  ;
			- m_lineWidth = 1;
			- m_anglePoint1 = 0 0 ;
			- m_anglePoint2 = 0 0 ;
			- m_line_style = 2;
			- m_pInverseModelObject = { ILinkHandle 
				- _m2Class = "";
			}
			- m_pInstance = { ILinkInstanceHandle 
				- _m2Class = "";
			}
			- m_pInverseInstance = { ILinkInstanceHandle 
				- _m2Class = "";
			}
			- m_bShowSourceMultiplicity = 1;
			- m_bShowSourceRole = 0;
			- m_bShowTargetMultiplicity = 1;
			- m_bShowTargetRole = 0;
			- m_bShowLinkName = 1;
			- m_bShowSpecificType = 0;
			- m_bInstance = 0;
			- m_bShowQualifier1 = 0;
			- m_bShowQualifier2 = 0;
			- m_sourceRole = { CGIText 
				- m_str = "";
				- m_style = "Arial" 10 0 0 0 1 ;
				- m_color = { IColor 
					- m_fgColor = 2;
					- m_bgColor = 2;
					- m_bgFlag = 0;
				}
				- m_position = 1 0 0  ;
				- m_nIdent = 1;
				- m_bImplicitSetRectPoints = 0;
			}
			- m_targetRole = { CGIText 
				- m_str = "";
				- m_style = "Arial" 10 0 0 0 1 ;
				- m_color = { IColor 
					- m_fgColor = 2;
					- m_bgColor = 2;
					- m_bgFlag = 0;
				}
				- m_position = 1 0 0  ;
				- m_nIdent = 2;
				- m_bImplicitSetRectPoints = 0;
			}
			- m_sourceMultiplicity = { CGIText 
				- m_str = "";
				- m_style = "Arial" 10 0 0 0 1 ;
				- m_color = { IColor 
					- m_fgColor = 2;
					- m_bgColor = 2;
					- m_bgFlag = 0;
				}
				- m_position = 1 0 0  ;
				- m_nIdent = 3;
				- m_bImplicitSetRectPoints = 0;
			}
			- m_targetMultiplicity = { CGIText 
				- m_str = "1";
				- m_style = "Arial" 10 0 0 0 1 ;
				- m_color = { IColor 
					- m_fgColor = 2;
					- m_bgColor = 2;
					- m_bgFlag = 0;
				}
				- m_position = 1 0 0  ;
				- m_nIdent = 4;
				- m_bImplicitSetRectPoints = 0;
			}
			- m_sourceQualifier = { CGIText 
				- m_str = "";
				- m_style = "Arial" 10 0 0 0 1 ;
				- m_color = { IColor 
					- m_fgColor = 0;
					- m_bgColor = 0;
					- m_bgFlag = 0;
				}
				- m_position = 1 0 0  ;
				- m_nIdent = 5;
				- m_bImplicitSetRectPoints = 0;
			}
			- m_targetQualifier = { CGIText 
				- m_str = "";
				- m_style = "Arial" 10 0 0 0 1 ;
				- m_color = { IColor 
					- m_fgColor = 0;
					- m_bgColor = 0;
					- m_bgFlag = 0;
				}
				- m_position = 1 0 0  ;
				- m_nIdent = 6;
				- m_bImplicitSetRectPoints = 0;
			}
			- m_specificType = type_122;
		}
		{ CGILink 
			- _id = GUID 52537b1d-ab99-4f75-af6e-86a3de5ea034;
			- m_type = 93;
			- m_pModelObject = { IHandle 
				- _m2Class = "ILink";
				- _filename = "Application.sbs";
				- _subsystem = "Application";
				- _class = "App1_task_0001ms";
				- _name = "itsAirframeSubsystem";
				- _id = GUID 633331f1-28db-46d1-aa5f-13208b95050d;
			}
			- m_pParent = ;
			- m_name = { CGIText 
				- m_str = "";
				- m_style = "Arial" 10 0 0 0 1 ;
				- m_color = { IColor 
					- m_fgColor = 21;
					- m_bgColor = 21;
					- m_bgFlag = 0;
				}
				- m_position = 1 0 0  ;
				- m_nIdent = 0;
				- m_bImplicitSetRectPoints = 0;
			}
			- m_drawBehavior = 4096;
			- m_pSource = GUID 679ef5ad-4b0f-471e-8d55-be56b929970d;
			- m_sourceType = 'F';
			- m_pTarget = GUID 74b1d484-7532-4c0e-8624-e0b1a9d9e043;
			- m_targetType = 'T';
			- m_direction = ' ';
			- m_rpn = { CGIText 
				- m_str = "";
				- m_style = "Arial" 10 0 0 0 1 ;
				- m_color = { IColor 
					- m_fgColor = 2;
					- m_bgColor = 2;
					- m_bgFlag = 0;
				}
				- m_position = 1 0 0  ;
				- m_nIdent = 0;
				- m_bImplicitSetRectPoints = 0;
			}
			- m_color = { IColor 
				- m_fgColor = 34;
				- m_bgColor = 34;
				- m_bgFlag = 0;
			}
			- m_lineWidth = 1;
			- m_arrow = 2 -4.39086930953372 17.8116756634406  -4.39086930953372 19.1416653728527  ;
			- m_lineWidth = 1;
			- m_anglePoint1 = 0 0 ;
			- m_anglePoint2 = 0 0 ;
			- m_line_style = 2;
			- m_pInverseModelObject = { ILinkHandle 
				- _m2Class = "";
			}
			- m_pInstance = { ILinkInstanceHandle 
				- _m2Class = "";
			}
			- m_pInverseInstance = { ILinkInstanceHandle 
				- _m2Class = "";
			}
			- m_bShowSourceMultiplicity = 1;
			- m_bShowSourceRole = 0;
			- m_bShowTargetMultiplicity = 1;
			- m_bShowTargetRole = 0;
			- m_bShowLinkName = 1;
			- m_bShowSpecificType = 0;
			- m_bInstance = 0;
			- m_bShowQualifier1 = 0;
			- m_bShowQualifier2 = 0;
			- m_sourceRole = { CGIText 
				- m_str = "";
				- m_style = "Arial" 10 0 0 0 1 ;
				- m_color = { IColor 
					- m_fgColor = 2;
					- m_bgColor = 2;
					- m_bgFlag = 0;
				}
				- m_position = 1 0 0  ;
				- m_nIdent = 1;
				- m_bImplicitSetRectPoints = 0;
			}
			- m_targetRole = { CGIText 
				- m_str = "";
				- m_style = "Arial" 10 0 0 0 1 ;
				- m_color = { IColor 
					- m_fgColor = 2;
					- m_bgColor = 2;
					- m_bgFlag = 0;
				}
				- m_position = 1 0 0  ;
				- m_nIdent = 2;
				- m_bImplicitSetRectPoints = 0;
			}
			- m_sourceMultiplicity = { CGIText 
				- m_str = "";
				- m_style = "Arial" 10 0 0 0 1 ;
				- m_color = { IColor 
					- m_fgColor = 2;
					- m_bgColor = 2;
					- m_bgFlag = 0;
				}
				- m_position = 1 0 0  ;
				- m_nIdent = 3;
				- m_bImplicitSetRectPoints = 0;
			}
			- m_targetMultiplicity = { CGIText 
				- m_str = "1";
				- m_style = "Arial" 10 0 0 0 1 ;
				- m_color = { IColor 
					- m_fgColor = 2;
					- m_bgColor = 2;
					- m_bgFlag = 0;
				}
				- m_position = 1 0 0  ;
				- m_nIdent = 4;
				- m_bImplicitSetRectPoints = 0;
			}
			- m_sourceQualifier = { CGIText 
				- m_str = "";
				- m_style = "Arial" 10 0 0 0 1 ;
				- m_color = { IColor 
					- m_fgColor = 0;
					- m_bgColor = 0;
					- m_bgFlag = 0;
				}
				- m_position = 1 0 0  ;
				- m_nIdent = 5;
				- m_bImplicitSetRectPoints = 0;
			}
			- m_targetQualifier = { CGIText 
				- m_str = "";
				- m_style = "Arial" 10 0 0 0 1 ;
				- m_color = { IColor 
					- m_fgColor = 0;
					- m_bgColor = 0;
					- m_bgFlag = 0;
				}
				- m_position = 1 0 0  ;
				- m_nIdent = 6;
				- m_bImplicitSetRectPoints = 0;
			}
			- m_specificType = type_122;
		}
		{ CGILink 
			- _id = GUID 535413c0-575f-4c8b-b06d-6246bf963e2c;
			- m_type = 93;
			- m_pModelObject = { IHandle 
				- _m2Class = "ILink";
				- _filename = "Application.sbs";
				- _subsystem = "Application";
				- _class = "App1_task_0040ms";
				- _name = "itsAvionicsAnimation";
				- _id = GUID e4c705ce-c283-4135-beb2-7a2fc3bbcfd2;
			}
			- m_pParent = ;
			- m_name = { CGIText 
				- m_str = "";
				- m_style = "Arial" 10 0 0 0 1 ;
				- m_color = { IColor 
					- m_fgColor = 21;
					- m_bgColor = 21;
					- m_bgFlag = 0;
				}
				- m_position = 1 0 0  ;
				- m_nIdent = 0;
				- m_bImplicitSetRectPoints = 0;
			}
			- m_drawBehavior = 4096;
			- m_pSource = GUID 6be98b9a-39aa-4414-929b-d99b259b3c3a;
			- m_sourceType = 'F';
			- m_pTarget = GUID 69c8160c-aca8-4518-a684-9dfbc891b6be;
			- m_targetType = 'T';
			- m_direction = ' ';
			- m_rpn = { CGIText 
				- m_str = "";
				- m_style = "Arial" 10 0 0 0 1 ;
				- m_color = { IColor 
					- m_fgColor = 2;
					- m_bgColor = 2;
					- m_bgFlag = 0;
				}
				- m_position = 1 0 0  ;
				- m_nIdent = 0;
				- m_bImplicitSetRectPoints = 0;
			}
			- m_color = { IColor 
				- m_fgColor = 34;
				- m_bgColor = 34;
				- m_bgFlag = 0;
			}
			- m_lineWidth = 1;
			- m_arrow = 2 10.5050154358818 20.0992579636294  7.8450360170576 20.0992579636294  ;
			- m_lineWidth = 1;
			- m_anglePoint1 = 0 0 ;
			- m_anglePoint2 = 0 0 ;
			- m_line_style = 2;
			- m_pInverseModelObject = { ILinkHandle 
				- _m2Class = "";
			}
			- m_pInstance = { ILinkInstanceHandle 
				- _m2Class = "";
			}
			- m_pInverseInstance = { ILinkInstanceHandle 
				- _m2Class = "";
			}
			- m_bShowSourceMultiplicity = 1;
			- m_bShowSourceRole = 0;
			- m_bShowTargetMultiplicity = 1;
			- m_bShowTargetRole = 0;
			- m_bShowLinkName = 1;
			- m_bShowSpecificType = 0;
			- m_bInstance = 0;
			- m_bShowQualifier1 = 0;
			- m_bShowQualifier2 = 0;
			- m_sourceRole = { CGIText 
				- m_str = "";
				- m_style = "Arial" 10 0 0 0 1 ;
				- m_color = { IColor 
					- m_fgColor = 2;
					- m_bgColor = 2;
					- m_bgFlag = 0;
				}
				- m_position = 1 0 0  ;
				- m_nIdent = 1;
				- m_bImplicitSetRectPoints = 0;
			}
			- m_targetRole = { CGIText 
				- m_str = "";
				- m_style = "Arial" 10 0 0 0 1 ;
				- m_color = { IColor 
					- m_fgColor = 2;
					- m_bgColor = 2;
					- m_bgFlag = 0;
				}
				- m_position = 1 0 0  ;
				- m_nIdent = 2;
				- m_bImplicitSetRectPoints = 0;
			}
			- m_sourceMultiplicity = { CGIText 
				- m_str = "";
				- m_style = "Arial" 10 0 0 0 1 ;
				- m_color = { IColor 
					- m_fgColor = 2;
					- m_bgColor = 2;
					- m_bgFlag = 0;
				}
				- m_position = 1 0 0  ;
				- m_nIdent = 3;
				- m_bImplicitSetRectPoints = 0;
			}
			- m_targetMultiplicity = { CGIText 
				- m_str = "1";
				- m_style = "Arial" 10 0 0 0 1 ;
				- m_color = { IColor 
					- m_fgColor = 2;
					- m_bgColor = 2;
					- m_bgFlag = 0;
				}
				- m_position = 1 0 0  ;
				- m_nIdent = 4;
				- m_bImplicitSetRectPoints = 0;
			}
			- m_sourceQualifier = { CGIText 
				- m_str = "";
				- m_style = "Arial" 10 0 0 0 1 ;
				- m_color = { IColor 
					- m_fgColor = 0;
					- m_bgColor = 0;
					- m_bgFlag = 0;
				}
				- m_position = 1 0 0  ;
				- m_nIdent = 5;
				- m_bImplicitSetRectPoints = 0;
			}
			- m_targetQualifier = { CGIText 
				- m_str = "";
				- m_style = "Arial" 10 0 0 0 1 ;
				- m_color = { IColor 
					- m_fgColor = 0;
					- m_bgColor = 0;
					- m_bgFlag = 0;
				}
				- m_position = 1 0 0  ;
				- m_nIdent = 6;
				- m_bImplicitSetRectPoints = 0;
			}
			- m_specificType = type_122;
		}
		{ CGIClassAndInstance 
			- _id = GUID 54a6dfaf-654b-45cf-ba83-067fe15a1fb8;
			- m_type = 87;
			- m_pModelObject = { IHandle 
				- _m2Class = "IClass";
				- _filename = "AirframePkg.sbs";
				- _subsystem = "AirframePkg";
				- _class = "";
				- _name = "FinActuator";
				- _id = GUID 07a2767e-6557-4476-8be3-4b2e1b59c601;
			}
			- m_pParent = GUID c9f19d8d-8daa-4274-be40-bcd8c3030026;
			- m_name = { CGIText 
				- m_str = "FinActuator";
				- m_style = "Arial" 10 0 0 0 1 ;
				- m_color = { IColor 
					- m_fgColor = 44;
					- m_bgColor = 44;
					- m_bgFlag = 0;
				}
				- m_position = 1 0 0  ;
				- m_nIdent = 0;
				- m_bImplicitSetRectPoints = 0;
			}
			- m_drawBehavior = 28680;
			- m_color = { IColor 
				- m_fgColor = 44;
				- m_bgColor = 21;
				- m_bgFlag = 0;
			}
			- m_lineWidth = 1;
			- m_polygon = 4 1.46108541187952 24.1956262686186  7.8450360170576 24.1956262686186  7.8450360170576 22.3336406754417  1.46108541187952 22.3336406754417  ;
			- m_nNameFormat = 0;
			- m_nIsNameFormat = 0;
			- Attrs = { IRPYRawContainer 
				- size = 0;
			}
			- Operations = { IRPYRawContainer 
				- size = 0;
			}
			- m_dSeparatorPosition = 0.5;
			- m_pInstance = NULL;
		}
		{ CGILink 
			- _id = GUID 59ba4744-cbb1-4062-9dfc-f07aaacbe9b5;
			- m_type = 93;
			- m_pModelObject = { IHandle 
				- _m2Class = "ILink";
				- _filename = "Application.sbs";
				- _subsystem = "Application";
				- _class = "App1_app";
				- _name = "task_0010ms";
				- _id = GUID 6c79fc78-d80b-4f21-94c7-0ee18cad46b1;
			}
			- m_pParent = ;
			- m_name = { CGIText 
				- m_str = "";
				- m_style = "Arial" 10 0 0 0 1 ;
				- m_color = { IColor 
					- m_fgColor = 21;
					- m_bgColor = 21;
					- m_bgFlag = 0;
				}
				- m_position = 1 0 0  ;
				- m_nIdent = 0;
				- m_bImplicitSetRectPoints = 0;
			}
			- m_drawBehavior = 4096;
			- m_pSource = GUID 6ac7b699-9997-4a2e-a00c-e2bf9a88b9ad;
			- m_sourceType = 'F';
			- m_pTarget = GUID ca735c98-1f0b-4cff-af8c-b03655940ce2;
			- m_targetType = 'T';
			- m_direction = ' ';
			- m_rpn = { CGIText 
				- m_str = "";
				- m_style = "Arial" 10 0 0 0 1 ;
				- m_color = { IColor 
					- m_fgColor = 2;
					- m_bgColor = 2;
					- m_bgFlag = 0;
				}
				- m_position = 1 0 0  ;
				- m_nIdent = 0;
				- m_bImplicitSetRectPoints = 0;
			}
			- m_color = { IColor 
				- m_fgColor = 34;
				- m_bgColor = 34;
				- m_bgFlag = 0;
			}
			- m_lineWidth = 1;
			- m_arrow = 2 13.6969907384708 15.9496900702636  13.6969907384708 14.6197003608515  ;
			- m_lineWidth = 1;
			- m_anglePoint1 = 0 0 ;
			- m_anglePoint2 = 0 0 ;
			- m_line_style = 2;
			- m_pInverseModelObject = { ILinkHandle 
				- _m2Class = "";
			}
			- m_pInstance = { ILinkInstanceHandle 
				- _m2Class = "";
			}
			- m_pInverseInstance = { ILinkInstanceHandle 
				- _m2Class = "";
			}
			- m_bShowSourceMultiplicity = 1;
			- m_bShowSourceRole = 0;
			- m_bShowTargetMultiplicity = 1;
			- m_bShowTargetRole = 0;
			- m_bShowLinkName = 1;
			- m_bShowSpecificType = 0;
			- m_bInstance = 0;
			- m_bShowQualifier1 = 0;
			- m_bShowQualifier2 = 0;
			- m_sourceRole = { CGIText 
				- m_str = "";
				- m_style = "Arial" 10 0 0 0 1 ;
				- m_color = { IColor 
					- m_fgColor = 2;
					- m_bgColor = 2;
					- m_bgFlag = 0;
				}
				- m_position = 1 0 0  ;
				- m_nIdent = 1;
				- m_bImplicitSetRectPoints = 0;
			}
			- m_targetRole = { CGIText 
				- m_str = "";
				- m_style = "Arial" 10 0 0 0 1 ;
				- m_color = { IColor 
					- m_fgColor = 2;
					- m_bgColor = 2;
					- m_bgFlag = 0;
				}
				- m_position = 1 0 0  ;
				- m_nIdent = 2;
				- m_bImplicitSetRectPoints = 0;
			}
			- m_sourceMultiplicity = { CGIText 
				- m_str = "";
				- m_style = "Arial" 10 0 0 0 1 ;
				- m_color = { IColor 
					- m_fgColor = 2;
					- m_bgColor = 2;
					- m_bgFlag = 0;
				}
				- m_position = 1 0 0  ;
				- m_nIdent = 3;
				- m_bImplicitSetRectPoints = 0;
			}
			- m_targetMultiplicity = { CGIText 
				- m_str = "1";
				- m_style = "Arial" 10 0 0 0 1 ;
				- m_color = { IColor 
					- m_fgColor = 2;
					- m_bgColor = 2;
					- m_bgFlag = 0;
				}
				- m_position = 1 0 0  ;
				- m_nIdent = 4;
				- m_bImplicitSetRectPoints = 0;
			}
			- m_sourceQualifier = { CGIText 
				- m_str = "";
				- m_style = "Arial" 10 0 0 0 1 ;
				- m_color = { IColor 
					- m_fgColor = 0;
					- m_bgColor = 0;
					- m_bgFlag = 0;
				}
				- m_position = 1 0 0  ;
				- m_nIdent = 5;
				- m_bImplicitSetRectPoints = 0;
			}
			- m_targetQualifier = { CGIText 
				- m_str = "";
				- m_style = "Arial" 10 0 0 0 1 ;
				- m_color = { IColor 
					- m_fgColor = 0;
					- m_bgColor = 0;
					- m_bgFlag = 0;
				}
				- m_position = 1 0 0  ;
				- m_nIdent = 6;
				- m_bImplicitSetRectPoints = 0;
			}
			- m_specificType = type_122;
		}
		{ CGIClassAndInstance 
			- _id = GUID 5d7d0263-1ec1-4c24-a42e-d3637494cd34;
			- m_type = 87;
			- m_pModelObject = { IHandle 
				- _m2Class = "IClass";
				- _filename = "AutopilotPkg.sbs";
				- _subsystem = "AutopilotPkg";
				- _class = "";
				- _name = "AutoPilot";
				- _id = GUID 5e16ef38-bc28-415f-967d-7462e4c948aa;
			}
			- m_pParent = GUID c9f19d8d-8daa-4274-be40-bcd8c3030026;
			- m_name = { CGIText 
				- m_str = "AutoPilot";
				- m_style = "Arial" 10 0 0 0 1 ;
				- m_color = { IColor 
					- m_fgColor = 44;
					- m_bgColor = 44;
					- m_bgFlag = 0;
				}
				- m_position = 1 0 0  ;
				- m_nIdent = 0;
				- m_bImplicitSetRectPoints = 0;
			}
			- m_drawBehavior = 28680;
			- m_color = { IColor 
				- m_fgColor = 44;
				- m_bgColor = 21;
				- m_bgFlag = 0;
			}
			- m_lineWidth = 1;
			- m_polygon = 4 -7.58284461212276 14.6197003608515  -1.19889400694468 14.6197003608515  -1.19889400694468 12.7577147676746  -7.58284461212276 12.7577147676746  ;
			- m_nNameFormat = 0;
			- m_nIsNameFormat = 0;
			- Attrs = { IRPYRawContainer 
				- size = 0;
			}
			- Operations = { IRPYRawContainer 
				- size = 0;
			}
			- m_dSeparatorPosition = 0.5;
			- m_pInstance = NULL;
		}
		{ CGILink 
			- _id = GUID 5f4134cf-659e-4804-9e15-3393daabc065;
			- m_type = 93;
			- m_pModelObject = { IHandle 
				- _m2Class = "ILink";
				- _filename = "Application.sbs";
				- _subsystem = "Application";
				- _class = "App1_task_0010ms";
				- _name = "itsSeeker";
				- _id = GUID 5ca5e3cb-4fd4-481d-bcf3-0d3340d8adf9;
			}
			- m_pParent = ;
			- m_name = { CGIText 
				- m_str = "";
				- m_style = "Arial" 10 0 0 0 1 ;
				- m_color = { IColor 
					- m_fgColor = 21;
					- m_bgColor = 21;
					- m_bgFlag = 0;
				}
				- m_position = 1 0 0  ;
				- m_nIdent = 0;
				- m_bImplicitSetRectPoints = 0;
			}
			- m_drawBehavior = 4096;
			- m_pSource = GUID ca735c98-1f0b-4cff-af8c-b03655940ce2;
			- m_sourceType = 'F';
			- m_pTarget = GUID f21a6f75-7c86-4b9a-9af4-8b6e3c5c58c7;
			- m_targetType = 'T';
			- m_direction = ' ';
			- m_rpn = { CGIText 
				- m_str = "";
				- m_style = "Arial" 10 0 0 0 1 ;
				- m_color = { IColor 
					- m_fgColor = 2;
					- m_bgColor = 2;
					- m_bgFlag = 0;
				}
				- m_position = 1 0 0  ;
				- m_nIdent = 0;
				- m_bImplicitSetRectPoints = 0;
			}
			- m_color = { IColor 
				- m_fgColor = 34;
				- m_bgColor = 34;
				- m_bgFlag = 0;
			}
			- m_lineWidth = 1;
			- m_arrow = 2 10.5050154358818 13.7153073584513  7.8450360170576 13.7153073584513  ;
			- m_lineWidth = 1;
			- m_anglePoint1 = 0 0 ;
			- m_anglePoint2 = 0 0 ;
			- m_line_style = 2;
			- m_pInverseModelObject = { ILinkHandle 
				- _m2Class = "";
			}
			- m_pInstance = { ILinkInstanceHandle 
				- _m2Class = "";
			}
			- m_pInverseInstance = { ILinkInstanceHandle 
				- _m2Class = "";
			}
			- m_bShowSourceMultiplicity = 1;
			- m_bShowSourceRole = 0;
			- m_bShowTargetMultiplicity = 1;
			- m_bShowTargetRole = 0;
			- m_bShowLinkName = 1;
			- m_bShowSpecificType = 0;
			- m_bInstance = 0;
			- m_bShowQualifier1 = 0;
			- m_bShowQualifier2 = 0;
			- m_sourceRole = { CGIText 
				- m_str = "";
				- m_style = "Arial" 10 0 0 0 1 ;
				- m_color = { IColor 
					- m_fgColor = 2;
					- m_bgColor = 2;
					- m_bgFlag = 0;
				}
				- m_position = 1 0 0  ;
				- m_nIdent = 1;
				- m_bImplicitSetRectPoints = 0;
			}
			- m_targetRole = { CGIText 
				- m_str = "";
				- m_style = "Arial" 10 0 0 0 1 ;
				- m_color = { IColor 
					- m_fgColor = 2;
					- m_bgColor = 2;
					- m_bgFlag = 0;
				}
				- m_position = 1 0 0  ;
				- m_nIdent = 2;
				- m_bImplicitSetRectPoints = 0;
			}
			- m_sourceMultiplicity = { CGIText 
				- m_str = "";
				- m_style = "Arial" 10 0 0 0 1 ;
				- m_color = { IColor 
					- m_fgColor = 2;
					- m_bgColor = 2;
					- m_bgFlag = 0;
				}
				- m_position = 1 0 0  ;
				- m_nIdent = 3;
				- m_bImplicitSetRectPoints = 0;
			}
			- m_targetMultiplicity = { CGIText 
				- m_str = "1";
				- m_style = "Arial" 10 0 0 0 1 ;
				- m_color = { IColor 
					- m_fgColor = 2;
					- m_bgColor = 2;
					- m_bgFlag = 0;
				}
				- m_position = 1 0 0  ;
				- m_nIdent = 4;
				- m_bImplicitSetRectPoints = 0;
			}
			- m_sourceQualifier = { CGIText 
				- m_str = "";
				- m_style = "Arial" 10 0 0 0 1 ;
				- m_color = { IColor 
					- m_fgColor = 0;
					- m_bgColor = 0;
					- m_bgFlag = 0;
				}
				- m_position = 1 0 0  ;
				- m_nIdent = 5;
				- m_bImplicitSetRectPoints = 0;
			}
			- m_targetQualifier = { CGIText 
				- m_str = "";
				- m_style = "Arial" 10 0 0 0 1 ;
				- m_color = { IColor 
					- m_fgColor = 0;
					- m_bgColor = 0;
					- m_bgFlag = 0;
				}
				- m_position = 1 0 0  ;
				- m_nIdent = 6;
				- m_bImplicitSetRectPoints = 0;
			}
			- m_specificType = type_122;
		}
		{ CGILink 
			- _id = GUID 65279499-2c42-428f-bc46-192c8e9dc4cb;
			- m_type = 93;
			- m_pModelObject = { IHandle 
				- _m2Class = "ILink";
				- _filename = "Application.sbs";
				- _subsystem = "Application";
				- _class = "AirframeSubsystem";
				- _name = "m_pSystemModel";
				- _id = GUID d41ac378-edd8-41df-8dbc-32f4f5fdcfcf;
			}
			- m_pParent = ;
			- m_name = { CGIText 
				- m_str = "";
				- m_style = "Arial" 10 0 0 0 1 ;
				- m_color = { IColor 
					- m_fgColor = 21;
					- m_bgColor = 21;
					- m_bgFlag = 0;
				}
				- m_position = 1 0 0  ;
				- m_nIdent = 0;
				- m_bImplicitSetRectPoints = 0;
			}
			- m_drawBehavior = 4096;
			- m_pSource = GUID 74b1d484-7532-4c0e-8624-e0b1a9d9e043;
			- m_sourceType = 'F';
			- m_pTarget = GUID 8d32275b-4863-4aff-9ef1-30078082583e;
			- m_targetType = 'T';
			- m_direction = ' ';
			- m_rpn = { CGIText 
				- m_str = "";
				- m_style = "Arial" 10 0 0 0 1 ;
				- m_color = { IColor 
					- m_fgColor = 2;
					- m_bgColor = 2;
					- m_bgFlag = 0;
				}
				- m_position = 1 0 0  ;
				- m_nIdent = 0;
				- m_bImplicitSetRectPoints = 0;
			}
			- m_color = { IColor 
				- m_fgColor = 34;
				- m_bgColor = 34;
				- m_bgFlag = 0;
			}
			- m_lineWidth = 1;
			- m_arrow = 2 -4.39086930953372 21.0036509660296  -4.39086930953372 22.3336406754417  ;
			- m_lineWidth = 1;
			- m_anglePoint1 = 0 0 ;
			- m_anglePoint2 = 0 0 ;
			- m_line_style = 2;
			- m_pInverseModelObject = { ILinkHandle 
				- _m2Class = "";
			}
			- m_pInstance = { ILinkInstanceHandle 
				- _m2Class = "";
			}
			- m_pInverseInstance = { ILinkInstanceHandle 
				- _m2Class = "";
			}
			- m_bShowSourceMultiplicity = 1;
			- m_bShowSourceRole = 0;
			- m_bShowTargetMultiplicity = 1;