I-Logix-RPY-Archive version 4.0.4 C++
{ ISubsystem 
	- _id = GUID 6b0c3486-09d9-40d1-9b0c-f438dac0103a;
	- _myState = 8192;
	- _name = "ApplicationDemo";
	- weakCGTime = 1.21.2003::17:11:5;
	- strongCGTime = 1.19.2003::15:20:51;
	- _defaultComposite = GUID 403d515e-ade9-4583-9e8a-caeb414b309e;
	- _eventsBaseID = 5201;
	- Classes = { IRPYRawContainer 
		- size = 8;
		- value = 
		{ IClass 
			- _id = GUID 403d515e-ade9-4583-9e8a-caeb414b309e;
			- _myState = 40960;
			- _name = "TopLevel";
			- weakCGTime = 1.21.2003::17:11:5;
			- strongCGTime = 1.19.2003::15:20:51;
			- _multiplicity = "";
			- _hotLink = "";
			- _itsStateChart = NULL;
			- Links = { IRPYRawContainer 
				- size = 0;
			}
			- PrimitiveOperations = { IRPYRawContainer 
				- size = 0;
			}
			- TriggeredOperations = { IRPYRawContainer 
				- size = 0;
			}
			- EventHandles = { IRPYRawContainer 
				- size = 0;
			}
			- Attrs = { IRPYRawContainer 
				- size = 0;
			}
			- Components = { IRPYRawContainer 
				- size = 0;
			}
			- Inheritances = { IRPYRawContainer 
				- size = 0;
			}
			- _classModifier = Unspecified;
		}
		{ IClass 
			- _id = GUID aa2a1895-0919-41ba-a6b1-bf1ca5b0e4ba;
			- _myState = 8192;
			- _properties = { IPropertyContainer 
				- Subjects = { IRPYRawContainer 
					- size = 2;
					- value = 
					{ IPropertySubject 
						- _Name = "CPP_CG";
						- Metaclasses = { IRPYRawContainer 
							- size = 1;
							- value = 
							{ IPropertyMetaclass 
								- _Name = "Class";
								- Properties = { IRPYRawContainer 
									- size = 3;
									- value = 
									{ IProperty 
										- _Name = "AdditionalBaseClasses";
										- _Value = "public COnUMLDaeEsoImpl<AirframeDemo>";
										- _Type = String;
									}
									{ IProperty 
										- _Name = "ImpIncludes";
										- _Value = "stdafx.h, OnUMLEso.h";
										- _Type = String;
									}
									{ IProperty 
										- _Name = "SpecIncludes";
										- _Value = "OnUMLDaeEsoImpl.h";
										- _Type = String;
									}
								}
							}
						}
					}
					{ IPropertySubject 
						- _Name = "Simulation";
						- Metaclasses = { IRPYRawContainer 
							- size = 1;
							- value = 
							{ IPropertyMetaclass 
								- _Name = "Class";
								- Properties = { IRPYRawContainer 
									- size = 5;
									- value = 
									{ IProperty 
										- _Name = "AttributeOrder";
										- _Value = "itsFinDynamics,itsBodyDynamics,itsAeroDynamics";
										- _Type = MultiLine;
									}
									{ IProperty 
										- _Name = "OnCg";
										- _Value = "False";
										- _Type = Bool;
									}
									{ IProperty 
										- _Name = "OperationOrder";
										- _Value = "";
										- _Type = MultiLine;
									}
									{ IProperty 
										- _Name = "SimType";
										- _Value = "Model";
										- _Type = Enum;
										- _ExtraTypeInfo = "Undefined,Model,AbstractModel,Connector,Structure,NonSimulation";
									}
									{ IProperty 
										- _Name = "StateOrder";
										- _Value = "";
										- _Type = MultiLine;
									}
								}
							}
						}
					}
				}
			}
			- _name = "AirframeDemo";
			- weakCGTime = 1.19.2003::15:30:55;
			- strongCGTime = 1.19.2003::15:29:10;
			- _multiplicity = "";
			- _hotLink = "";
			- _itsStateChart = NULL;
			- Links = { IRPYRawContainer 
				- size = 3;
				- value = 
				{ ILink 
					- _id = GUID 286bb1e4-6f4d-422b-957e-fcc283c780b0;
					- _properties = { IPropertyContainer 
						- Subjects = { IRPYRawContainer 
							- size = 3;
							- value = 
							{ IPropertySubject 
								- _Name = "CG";
								- Metaclasses = { IRPYRawContainer 
									- size = 1;
									- value = 
									{ IPropertyMetaclass 
										- _Name = "Relation";
										- Properties = { IRPYRawContainer 
											- size = 4;
											- value = 
											{ IProperty 
												- _Name = "AddGenerate";
												- _Value = "False";
												- _Type = Bool;
											}
											{ IProperty 
												- _Name = "ClearGenerate";
												- _Value = "False";
												- _Type = Bool;
											}
											{ IProperty 
												- _Name = "GetGenerate";
												- _Value = "False";
												- _Type = Bool;
											}
											{ IProperty 
												- _Name = "SetGenerate";
												- _Value = "False";
												- _Type = Bool;
											}
										}
									}
								}
							}
							{ IPropertySubject 
								- _Name = "CPP_CG";
								- Metaclasses = { IRPYRawContainer 
									- size = 1;
									- value = 
									{ IPropertyMetaclass 
										- _Name = "Relation";
										- Properties = { IRPYRawContainer 
											- size = 1;
											- value = 
											{ IProperty 
												- _Name = "DataMemberVisibility";
												- _Value = "Public";
												- _Type = Enum;
												- _ExtraTypeInfo = "Public, Protected, Private";
											}
										}
									}
								}
							}
							{ IPropertySubject 
								- _Name = "Simulation";
								- Metaclasses = { IRPYRawContainer 
									- size = 2;
									- value = 
									{ IPropertyMetaclass 
										- _Name = "Attribute";
										- Properties = { IRPYRawContainer 
											- size = 1;
											- value = 
											{ IProperty 
												- _Name = "OnCg";
												- _Value = "False";
												- _Type = Bool;
											}
										}
									}
									{ IPropertyMetaclass 
										- _Name = "Relation";
										- Properties = { IRPYRawContainer 
											- size = 4;
											- value = 
											{ IProperty 
												- _Name = "OnCg";
												- _Value = "False";
												- _Type = Bool;
											}
											{ IProperty 
												- _Name = "SimSubType";
												- _Value = "Scalar";
												- _Type = Enum;
												- _ExtraTypeInfo = "Undefined,Scalar,Array,Matrix";
											}
											{ IProperty 
												- _Name = "SimType";
												- _Value = "Model";
												- _Type = Enum;
												- _ExtraTypeInfo = "Undefined,Variable,Parameter,Connector,Model,Struct,Broadcaster,Listener,DataCollector,Input,Output";
											}
											{ IProperty 
												- _Name = "bSim";
												- _Value = "True";
												- _Type = Bool;
											}
										}
									}
								}
							}
						}
					}
					- _name = "itsFinDynamics";
					- _multiplicity = "1";
					- _otherClass = { IClassHandle 
						- _m2Class = "IClass";
						- _filename = "AirframePkg.sbs";
						- _subsystem = "AirframePkg";
						- _class = "";
						- _name = "FinActuator";
						- _id = GUID 07a2767e-6557-4476-8be3-4b2e1b59c601;
					}
					- _inverse = { IHandle 
						- _m2Class = "";
					}
					- _linkName = "";
					- _linkType = Aggreg;
				}
				{ ILink 
					- _id = GUID 6757bfb2-dac1-4341-bb43-560ac398bc48;
					- _properties = { IPropertyContainer 
						- Subjects = { IRPYRawContainer 
							- size = 3;
							- value = 
							{ IPropertySubject 
								- _Name = "CG";
								- Metaclasses = { IRPYRawContainer 
									- size = 1;
									- value = 
									{ IPropertyMetaclass 
										- _Name = "Relation";
										- Properties = { IRPYRawContainer 
											- size = 4;
											- value = 
											{ IProperty 
												- _Name = "AddGenerate";
												- _Value = "False";
												- _Type = Bool;
											}
											{ IProperty 
												- _Name = "ClearGenerate";
												- _Value = "False";
												- _Type = Bool;
											}
											{ IProperty 
												- _Name = "GetGenerate";
												- _Value = "False";
												- _Type = Bool;
											}
											{ IProperty 
												- _Name = "SetGenerate";
												- _Value = "False";
												- _Type = Bool;
											}
										}
									}
								}
							}
							{ IPropertySubject 
								- _Name = "CPP_CG";
								- Metaclasses = { IRPYRawContainer 
									- size = 1;
									- value = 
									{ IPropertyMetaclass 
										- _Name = "Relation";
										- Properties = { IRPYRawContainer 
											- size = 1;
											- value = 
											{ IProperty 
												- _Name = "DataMemberVisibility";
												- _Value = "Public";
												- _Type = Enum;
												- _ExtraTypeInfo = "Public, Protected, Private";
											}
										}
									}
								}
							}
							{ IPropertySubject 
								- _Name = "Simulation";
								- Metaclasses = { IRPYRawContainer 
									- size = 2;
									- value = 
									{ IPropertyMetaclass 
										- _Name = "Attribute";
										- Properties = { IRPYRawContainer 
											- size = 1;
											- value = 
											{ IProperty 
												- _Name = "OnCg";
												- _Value = "False";
												- _Type = Bool;
											}
										}
									}
									{ IPropertyMetaclass 
										- _Name = "Relation";
										- Properties = { IRPYRawContainer 
											- size = 4;
											- value = 
											{ IProperty 
												- _Name = "OnCg";
												- _Value = "False";
												- _Type = Bool;
											}
											{ IProperty 
												- _Name = "SimSubType";
												- _Value = "Scalar";
												- _Type = Enum;
												- _ExtraTypeInfo = "Undefined,Scalar,Array,Matrix";
											}
											{ IProperty 
												- _Name = "SimType";
												- _Value = "Model";
												- _Type = Enum;
												- _ExtraTypeInfo = "Undefined,Variable,Parameter,Connector,Model,Struct,Broadcaster,Listener,DataCollector,Input,Output";
											}
											{ IProperty 
												- _Name = "bSim";
												- _Value = "True";
												- _Type = Bool;
											}
										}
									}
								}
							}
						}
					}
					- _name = "itsBodyDynamics";
					- _multiplicity = "1";
					- _otherClass = { IClassHandle 
						- _m2Class = "IClass";
						- _filename = "AirframePkg.sbs";
						- _subsystem = "AirframePkg";
						- _class = "";
						- _name = "BodyDynamics";
						- _id = GUID f19a6fbd-82a5-4b21-b74e-9664cad3b783;
					}
					- _inverse = { IHandle 
						- _m2Class = "";
					}
					- _linkName = "";
					- _linkType = Aggreg;
				}
				{ ILink 
					- _id = GUID 7b03d04c-e616-4144-b8ef-66a4c4510345;
					- _properties = { IPropertyContainer 
						- Subjects = { IRPYRawContainer 
							- size = 3;
							- value = 
							{ IPropertySubject 
								- _Name = "CG";
								- Metaclasses = { IRPYRawContainer 
									- size = 1;
									- value = 
									{ IPropertyMetaclass 
										- _Name = "Relation";
										- Properties = { IRPYRawContainer 
											- size = 4;
											- value = 
											{ IProperty 
												- _Name = "AddGenerate";
												- _Value = "False";
												- _Type = Bool;
											}
											{ IProperty 
												- _Name = "ClearGenerate";
												- _Value = "False";
												- _Type = Bool;
											}
											{ IProperty 
												- _Name = "GetGenerate";
												- _Value = "False";
												- _Type = Bool;
											}
											{ IProperty 
												- _Name = "SetGenerate";
												- _Value = "False";
												- _Type = Bool;
											}
										}
									}
								}
							}
							{ IPropertySubject 
								- _Name = "CPP_CG";
								- Metaclasses = { IRPYRawContainer 
									- size = 1;
									- value = 
									{ IPropertyMetaclass 
										- _Name = "Relation";
										- Properties = { IRPYRawContainer 
											- size = 1;
											- value = 
											{ IProperty 
												- _Name = "DataMemberVisibility";
												- _Value = "Public";
												- _Type = Enum;
												- _ExtraTypeInfo = "Public, Protected, Private";
											}
										}
									}
								}
							}
							{ IPropertySubject 
								- _Name = "Simulation";
								- Metaclasses = { IRPYRawContainer 
									- size = 2;
									- value = 
									{ IPropertyMetaclass 
										- _Name = "Attribute";
										- Properties = { IRPYRawContainer 
											- size = 1;
											- value = 
											{ IProperty 
												- _Name = "OnCg";
												- _Value = "False";
												- _Type = Bool;
											}
										}
									}
									{ IPropertyMetaclass 
										- _Name = "Relation";
										- Properties = { IRPYRawContainer 
											- size = 4;
											- value = 
											{ IProperty 
												- _Name = "OnCg";
												- _Value = "False";
												- _Type = Bool;
											}
											{ IProperty 
												- _Name = "SimSubType";
												- _Value = "Scalar";
												- _Type = Enum;
												- _ExtraTypeInfo = "Undefined,Scalar,Array,Matrix";
											}
											{ IProperty 
												- _Name = "SimType";
												- _Value = "Model";
												- _Type = Enum;
												- _ExtraTypeInfo = "Undefined,Variable,Parameter,Connector,Model,Struct,Broadcaster,Listener,DataCollector,Input,Output";
											}
											{ IProperty 
												- _Name = "bSim";
												- _Value = "True";
												- _Type = Bool;
											}
										}
									}
								}
							}
						}
					}
					- _name = "itsAeroDynamics";
					- _multiplicity = "1";
					- _otherClass = { IClassHandle 
						- _m2Class = "IClass";
						- _filename = "AirframePkg.sbs";
						- _subsystem = "AirframePkg";
						- _class = "";
						- _name = "AeroDynamics";
						- _id = GUID 22dfd167-3d2b-43c0-96ac-aee80d530cfb;
					}
					- _inverse = { IHandle 
						- _m2Class = "";
					}
					- _linkName = "";
					- _linkType = Aggreg;
				}
			}
			- PrimitiveOperations = { IRPYRawContainer 
				- size = 8;
				- value = 
				{ IConstructor 
					- _id = GUID 4750b82a-4971-4976-b7b2-32183827999e;
					- _properties = { IPropertyContainer 
						- Subjects = { IRPYRawContainer 
							- size = 1;
							- value = 
							{ IPropertySubject 
								- _Name = "Simulation";
								- Metaclasses = { IRPYRawContainer 
									- size = 1;
									- value = 
									{ IPropertyMetaclass 
										- _Name = "Operation";
										- Properties = { IRPYRawContainer 
											- size = 5;
											- value = 
											{ IProperty 
												- _Name = "AutoDiff";
												- _Value = "False";
												- _Type = Bool;
											}
											{ IProperty 
												- _Name = "DiffType";
												- _Value = "Automatic";
												- _Type = Enum;
												- _ExtraTypeInfo = "Undefined,Automatic,Numeric";
											}
											{ IProperty 
												- _Name = "OnCg";
												- _Value = "False";
												- _Type = Bool;
											}
											{ IProperty 
												- _Name = "SimType";
												- _Value = "Continuous";
												- _Type = Enum;
												- _ExtraTypeInfo = "Undefined,Continuous,Discontinuous,Reset,Get,Set";
											}
											{ IProperty 
												- _Name = "bSim";
												- _Value = "False";
												- _Type = Bool;
											}
										}
									}
								}
							}
						}
					}
					- _virtual = 0;
					- Args = { IRPYRawContainer 
						- size = 0;
					}
					- _returnType = { IHandle 
						- _m2Class = "";
					}
					- _abstract = 0;
					- _final = 0;
					- _concurrency = Sequential;
					- _protection = iPublic;
					- _static = 0;
					- _constant = 0;
					- _itsBody = { IBody 
						- _bodyData = "
init();";
					}
					- _initializer = "";
				}
				{ IDestructor 
					- _id = GUID 049e98f1-2eb7-4c26-8fd6-4da9f161c827;
					- _properties = { IPropertyContainer 
						- Subjects = { IRPYRawContainer 
							- size = 1;
							- value = 
							{ IPropertySubject 
								- _Name = "Simulation";
								- Metaclasses = { IRPYRawContainer 
									- size = 1;
									- value = 
									{ IPropertyMetaclass 
										- _Name = "Operation";
										- Properties = { IRPYRawContainer 
											- size = 5;
											- value = 
											{ IProperty 
												- _Name = "AutoDiff";
												- _Value = "False";
												- _Type = Bool;
											}
											{ IProperty 
												- _Name = "DiffType";
												- _Value = "Automatic";
												- _Type = Enum;
												- _ExtraTypeInfo = "Undefined,Automatic,Numeric";
											}
											{ IProperty 
												- _Name = "OnCg";
												- _Value = "False";
												- _Type = Bool;
											}
											{ IProperty 
												- _Name = "SimType";
												- _Value = "Continuous";
												- _Type = Enum;
												- _ExtraTypeInfo = "Undefined,Continuous,Discontinuous,Reset,Get,Set";
											}
											{ IProperty 
												- _Name = "bSim";
												- _Value = "False";
												- _Type = Bool;
											}
										}
									}
								}
							}
						}
					}
					- _virtual = 0;
					- Args = { IRPYRawContainer 
						- size = 0;
					}
					- _returnType = { IHandle 
						- _m2Class = "";
					}
					- _abstract = 0;
					- _final = 0;
					- _concurrency = Sequential;
					- _protection = iPublic;
					- _static = 0;
					- _constant = 0;
					- _itsBody = { IBody 
						- _bodyData = "
clean();";
					}
				}
				{ IPrimitiveOperation 
					- _id = GUID ed7c7983-d4e3-43be-b9ac-9188c791221d;
					- _properties = { IPropertyContainer 
						- Subjects = { IRPYRawContainer 
							- size = 1;
							- value = 
							{ IPropertySubject 
								- _Name = "Simulation";
								- Metaclasses = { IRPYRawContainer 
									- size = 1;
									- value = 
									{ IPropertyMetaclass 
										- _Name = "Operation";
										- Properties = { IRPYRawContainer 
											- size = 5;
											- value = 
											{ IProperty 
												- _Name = "AutoDiff";
												- _Value = "False";
												- _Type = Bool;
											}
											{ IProperty 
												- _Name = "DiffType";
												- _Value = "Automatic";
												- _Type = Enum;
												- _ExtraTypeInfo = "Undefined,Automatic,Numeric";
											}
											{ IProperty 
												- _Name = "OnCg";
												- _Value = "False";
												- _Type = Bool;
											}
											{ IProperty 
												- _Name = "SimType";
												- _Value = "Continuous";
												- _Type = Enum;
												- _ExtraTypeInfo = "Undefined,Continuous,Discontinuous,Reset,Get,Set";
											}
											{ IProperty 
												- _Name = "bSim";
												- _Value = "False";
												- _Type = Bool;
											}
										}
									}
								}
							}
						}
					}
					- _name = "init";
					- _virtual = 0;
					- Args = { IRPYRawContainer 
						- size = 0;
					}
					- _returnType = { IHandle 
						- _m2Class = "IType";
						- _filename = "PredefinedTypes.sbs";
						- _subsystem = "PredefinedTypes";
						- _class = "";
						- _name = "void";
						- _id = GUID 1ae3fac8-89cb-11d2-b813-00104b3e6572;
					}
					- _abstract = 0;
					- _final = 0;
					- _concurrency = Sequential;
					- _protection = iProtected;
					- _static = 0;
					- _constant = 0;
					- _itsBody = { IBody 
						- _bodyData = "

itsFinDynamics = new FinActuator();
itsFinDynamics->AddRef();

itsBodyDynamics = new BodyDynamics();
itsBodyDynamics->AddRef();

itsAeroDynamics = new AeroDynamics();
itsAeroDynamics->AddRef();
";
					}
				}
				{ IPrimitiveOperation 
					- _id = GUID f716adcc-a753-440e-aab0-9a3cafd32ea5;
					- _properties = { IPropertyContainer 
						- Subjects = { IRPYRawContainer 
							- size = 1;
							- value = 
							{ IPropertySubject 
								- _Name = "Simulation";
								- Metaclasses = { IRPYRawContainer 
									- size = 1;
									- value = 
									{ IPropertyMetaclass 
										- _Name = "Operation";
										- Properties = { IRPYRawContainer 
											- size = 5;
											- value = 
											{ IProperty 
												- _Name = "AutoDiff";
												- _Value = "False";
												- _Type = Bool;
											}
											{ IProperty 
												- _Name = "DiffType";
												- _Value = "Automatic";
												- _Type = Enum;
												- _ExtraTypeInfo = "Undefined,Automatic,Numeric";
											}
											{ IProperty 
												- _Name = "OnCg";
												- _Value = "False";
												- _Type = Bool;
											}
											{ IProperty 
												- _Name = "SimType";
												- _Value = "Continuous";
												- _Type = Enum;
												- _ExtraTypeInfo = "Undefined,Continuous,Discontinuous,Reset,Get,Set";
											}
											{ IProperty 
												- _Name = "bSim";
												- _Value = "False";
												- _Type = Bool;
											}
										}
									}
								}
							}
						}
					}
					- _name = "clean";
					- _virtual = 0;
					- Args = { IRPYRawContainer 
						- size = 0;
					}
					- _returnType = { IHandle 
						- _m2Class = "IType";
						- _filename = "PredefinedTypes.sbs";
						- _subsystem = "PredefinedTypes";
						- _class = "";
						- _name = "void";
						- _id = GUID 1ae3fac8-89cb-11d2-b813-00104b3e6572;
					}
					- _abstract = 0;
					- _final = 0;
					- _concurrency = Sequential;
					- _protection = iProtected;
					- _static = 0;
					- _constant = 0;
					- _itsBody = { IBody 
						- _bodyData = "
if (itsFinDynamics)
{
  itsFinDynamics->Release();
  itsFinDynamics = NULL;
}
if (itsBodyDynamics)
{
  itsBodyDynamics->Release();
  itsBodyDynamics = NULL;
}
if (itsAeroDynamics)
{
  itsAeroDynamics->Release();
  itsAeroDynamics = NULL;
}";
					}
				}
				{ IPrimitiveOperation 
					- _id = GUID 9fe13edc-514f-4beb-b28d-777cf8ff6f81;
					- _properties = { IPropertyContainer 
						- Subjects = { IRPYRawContainer 
							- size = 1;
							- value = 
							{ IPropertySubject 
								- _Name = "Simulation";
								- Metaclasses = { IRPYRawContainer 
									- size = 1;
									- value = 
									{ IPropertyMetaclass 
										- _Name = "Operation";
										- Properties = { IRPYRawContainer 
											- size = 5;
											- value = 
											{ IProperty 
												- _Name = "AutoDiff";
												- _Value = "False";
												- _Type = Bool;
											}
											{ IProperty 
												- _Name = "DiffType";
												- _Value = "Automatic";
												- _Type = Enum;
												- _ExtraTypeInfo = "Undefined,Automatic,Numeric";
											}
											{ IProperty 
												- _Name = "OnCg";
												- _Value = "False";
												- _Type = Bool;
											}
											{ IProperty 
												- _Name = "SimType";
												- _Value = "Continuous";
												- _Type = Enum;
												- _ExtraTypeInfo = "Undefined,Continuous,Discontinuous,Reset,Get,Set";
											}
											{ IProperty 
												- _Name = "bSim";
												- _Value = "False";
												- _Type = Bool;
											}
										}
									}
								}
							}
						}
					}
					- _name = "Save";
					- _virtual = 0;
					- Args = { IRPYRawContainer 
						- size = 1;
						- value = 
						{ IArgument 
							- _id = GUID 08b5c4bb-203f-48e9-9f80-7b447c058af9;
							- _name = "fs";
							- _defaultValue = "";
							- myTypeOf = { IType 
								- _id = GUID dfd706c3-790f-4f07-acd8-42f68b40240b;
								- _declaration = "FILE*";
							}
							- _argumentDirection = InOut;
						}
					}
					- _returnType = { IHandle 
						- _m2Class = "IType";
						- _filename = "PredefinedTypes.sbs";
						- _subsystem = "PredefinedTypes";
						- _class = "";
						- _name = "void";
						- _id = GUID 1ae3fac8-89cb-11d2-b813-00104b3e6572;
					}
					- _abstract = 0;
					- _final = 0;
					- _concurrency = Sequential;
					- _protection = iProtected;
					- _static = 0;
					- _constant = 0;
					- _itsBody = { IBody 
						- _bodyData = "
itsFinDynamics->Save(fs);
itsBodyDynamics->Save(fs);
itsAeroDynamics->Save(fs);";
					}
				}
				{ IPrimitiveOperation 
					- _id = GUID 6cd6b05c-9ba8-4afb-82a1-8a1d569606b5;
					- _properties = { IPropertyContainer 
						- Subjects = { IRPYRawContainer 
							- size = 1;
							- value = 
							{ IPropertySubject 
								- _Name = "Simulation";
								- Metaclasses = { IRPYRawContainer 
									- size = 1;
									- value = 
									{ IPropertyMetaclass 
										- _Name = "Operation";
										- Properties = { IRPYRawContainer 
											- size = 5;
											- value = 
											{ IProperty 
												- _Name = "AutoDiff";
												- _Value = "False";
												- _Type = Bool;
											}
											{ IProperty 
												- _Name = "DiffType";
												- _Value = "Automatic";
												- _Type = Enum;
												- _ExtraTypeInfo = "Undefined,Automatic,Numeric";
											}
											{ IProperty 
												- _Name = "OnCg";
												- _Value = "False";
												- _Type = Bool;
											}
											{ IProperty 
												- _Name = "SimType";
												- _Value = "Continuous";
												- _Type = Enum;
												- _ExtraTypeInfo = "Undefined,Continuous,Discontinuous,Reset,Get,Set";
											}
											{ IProperty 
												- _Name = "bSim";
												- _Value = "False";
												- _Type = Bool;
											}
										}
									}
								}
							}
						}
					}
					- _name = "Load";
					- _virtual = 0;
					- Args = { IRPYRawContainer 
						- size = 1;
						- value = 
						{ IArgument 
							- _id = GUID 4a0557f3-1db0-4fea-8e88-1f1652f06b4e;
							- _name = "fs";
							- _defaultValue = "";
							- myTypeOf = { IType 
								- _id = GUID 9a132135-1eef-4dc0-b6d1-4efa94082cae;
								- _declaration = "FILE*";
							}
							- _argumentDirection = InOut;
						}
					}
					- myReturnType = { IType 
						- _id = GUID c59a3c70-dabe-4b64-af29-70f812f05b86;
						- _declaration = "bool";
					}
					- _abstract = 0;
					- _final = 0;
					- _concurrency = Sequential;
					- _protection = iProtected;
					- _static = 0;
					- _constant = 0;
					- _itsBody = { IBody 
						- _bodyData = "
if (! itsFinDynamics->Load(fs) ) return false;
if (! itsBodyDynamics->Load(fs) ) return false;
if (! itsAeroDynamics->Load(fs) ) return false;

return true;";
					}
				}
				{ IPrimitiveOperation 
					- _id = GUID 0cfc7fcd-c34b-497f-823b-863b89f349e9;
					- _properties = { IPropertyContainer 
						- Subjects = { IRPYRawContainer 
							- size = 1;
							- value = 
							{ IPropertySubject 
								- _Name = "Simulation";
								- Metaclasses = { IRPYRawContainer 
									- size = 1;
									- value = 
									{ IPropertyMetaclass 
										- _Name = "Operation";
										- Properties = { IRPYRawContainer 
											- size = 5;
											- value = 
											{ IProperty 
												- _Name = "AutoDiff";
												- _Value = "False";
												- _Type = Bool;
											}
											{ IProperty 
												- _Name = "DiffType";
												- _Value = "Automatic";
												- _Type = Enum;
												- _ExtraTypeInfo = "Undefined,Automatic,Numeric";
											}
											{ IProperty 
												- _Name = "OnCg";
												- _Value = "False";
												- _Type = Bool;
											}
											{ IProperty 
												- _Name = "SimType";
												- _Value = "Continuous";
												- _Type = Enum;
												- _ExtraTypeInfo = "Undefined,Continuous,Discontinuous,Reset,Get,Set";
											}
											{ IProperty 
												- _Name = "bSim";
												- _Value = "False";
												- _Type = Bool;
											}
										}
									}
								}
							}
						}
					}
					- _name = "GetAssociations";
					- _virtual = 0;
					- Args = { IRPYRawContainer 
						- size = 3;
						- value = 
						{ IArgument 
							- _id = GUID 55223a40-2f07-4a2d-bf71-59e98fbd3ff7;
							- _name = "Assoc";
							- _defaultValue = "";
							- myTypeOf = { IType 
								- _id = GUID 43ca5ec6-5087-447e-b1b4-852abec51081;
								- _declaration = "long**";
							}
							- _argumentDirection = InOut;
						}
						{ IArgument 
							- _id = GUID 7c58761e-a2d1-4534-a9f0-80a28c1659cb;
							- _name = "Size";
							- _defaultValue = "";
							- myTypeOf = { IType 
								- _id = GUID 85a7bbd8-c7c1-4c90-b707-efa066dbeb08;
								- _declaration = "long**";
							}
							- _argumentDirection = InOut;
						}
						{ IArgument 
							- _id = GUID 4a800ac8-c0b1-4212-b48c-bec648ed9539;
							- _name = "nSize";
							- _defaultValue = "";
							- myTypeOf = { IType 
								- _id = GUID 72ddf34a-dbbf-4d22-a200-d15de7c27617;
								- _declaration = "long*";
							}
							- _argumentDirection = InOut;
						}
					}
					- myReturnType = { IType 
						- _id = GUID c48fa6a9-1f86-4ca9-bffc-f7382bd04376;
						- _declaration = "HRESULT";
					}
					- _abstract = 0;
					- _final = 0;
					- _concurrency = Sequential;
					- _protection = iProtected;
					- _static = 0;
					- _constant = 0;
					- _itsBody = { IBody 
						- _bodyData = "
long nAssoc;
long i;

const long assoc[] =
{
  2, 1,      0, 0,
  1, 0,      2, 0,
};

const long size[] =
{
  2, 2,
  2, 2,
};

*nSize = sizeof(size) / sizeof(long);
nAssoc = sizeof(assoc) / sizeof(long);

*Size = new long[*nSize];
*Assoc = new long[nAssoc];

for (i = 0; i < *nSize; i++) (*Size)[i] = size[i];
for (i = 0; i < nAssoc; i++) (*Assoc)[i] = assoc[i];

return S_OK;";
					}
				}
				{ IPrimitiveOperation 
					- _id = GUID 271bf6e9-d308-4cba-9a83-a6bbf48309c7;
					- _properties = { IPropertyContainer 
						- Subjects = { IRPYRawContainer 
							- size = 1;
							- value = 
							{ IPropertySubject 
								- _Name = "Simulation";
								- Metaclasses = { IRPYRawContainer 
									- size = 1;
									- value = 
									{ IPropertyMetaclass 
										- _Name = "Operation";
										- Properties = { IRPYRawContainer 
											- size = 5;
											- value = 
											{ IProperty 
												- _Name = "AutoDiff";
												- _Value = "False";
												- _Type = Bool;
											}
											{ IProperty 
												- _Name = "DiffType";
												- _Value = "Automatic";
												- _Type = Enum;
												- _ExtraTypeInfo = "Undefined,Automatic,Numeric";
											}